 Abaqus/Standard Learning Edition 2024                  DATE 16-2-2026 TIME 12:44:59
 SUMMARY OF JOB INFORMATION:
 STEP  INC ATT SEVERE EQUIL TOTAL  TOTAL      STEP       INC OF       DOF    IF
               DISCON ITERS ITERS  TIME/    TIME/LPF    TIME/LPF    MONITOR RIKS
               ITERS               FREQ
   1     1   1U    1     1     2  0.00       0.00       1.000     
   1     1   2     2     4     6  0.250      0.250      0.2500    
   1     2   1     1     2     3  0.500      0.500      0.2500    
   1     3   1     0     1     1  0.875      0.875      0.3750    
   1     4   1     0     1     1  1.00       1.00       0.1250    
   1     5   1     1     1     2  2.00       2.00       1.000     
   1     6   1     0     2     2  3.00       3.00       1.000     
   1     7   1     0     3     3  4.00       4.00       1.000     
   1     8   1     0     2     2  5.00       5.00       1.000     
   1     9   1     0     2     2  6.00       6.00       1.000     
   1    10   1     0     2     2  7.00       7.00       1.000     
   1    11   1     0     2     2  8.00       8.00       1.000     
   1    12   1     0     2     2  9.00       9.00       1.000     
   1    13   1     0     2     2  10.0       10.0       1.000     
   1    14   1     0     2     2  11.0       11.0       1.000     
   1    15   1     3     2     5  12.0       12.0       1.000     
   1    16   1     0     2     2  13.0       13.0       1.000     
   1    17   1     0     2     2  14.0       14.0       1.000     
   1    18   1     0     2     2  15.0       15.0       1.000     
   1    19   1     0     2     2  16.0       16.0       1.000     
   1    20   1     0     2     2  17.0       17.0       1.000     
   1    21   1     0     1     1  18.0       18.0       1.000     
   1    22   1     0     2     2  19.0       19.0       1.000     
   1    23   1     2     4     6  20.0       20.0       1.000     
   1    24   1     0     2     2  21.0       21.0       1.000     
   1    25   1     0     2     2  22.0       22.0       1.000     
   1    26   1     0     2     2  23.0       23.0       1.000     
   1    27   1     0     2     2  24.0       24.0       1.000     
   1    28   1     0     2     2  25.0       25.0       1.000     
   1    29   1     0     1     1  26.0       26.0       1.000     
   1    30   1     0     1     1  27.0       27.0       1.000     
   1    31   1     2     5     7  28.0       28.0       1.000     
   1    32   1     0     2     2  29.0       29.0       1.000     
   1    33   1     0     2     2  30.0       30.0       1.000     
   1    34   1     0     1     1  31.0       31.0       1.000     
   1    35   1     0     2     2  32.0       32.0       1.000     
   1    36   1     2     2     4  33.0       33.0       1.000     
   1    37   1     1     2     3  34.0       34.0       1.000     
   1    38   1     1     2     3  35.0       35.0       1.000     
   1    39   1     0     2     2  36.0       36.0       1.000     
   1    40   1     2     5     7  37.0       37.0       1.000     
   1    41   1     0     2     2  38.0       38.0       1.000     
   1    42   1     0     2     2  39.0       39.0       1.000     
   1    43   1     0     2     2  40.0       40.0       1.000     
   1    44   1     2     3     5  41.0       41.0       1.000     
   1    45   1     0     2     2  42.0       42.0       1.000     
   1    46   1     0     2     2  43.0       43.0       1.000     
   1    47   1     2     2     4  44.0       44.0       1.000     
   1    48   1     0     2     2  45.0       45.0       1.000     
   1    49   1     0     2     2  46.0       46.0       1.000     
   1    50   1     0     2     2  47.0       47.0       1.000     
   1    51   1     2     4     6  48.0       48.0       1.000     
   1    52   1     0     3     3  49.0       49.0       1.000     
   1    53   1     0     2     2  50.0       50.0       1.000     
   1    54   1     2     5     7  51.0       51.0       1.000     
   1    55   1     0     2     2  52.0       52.0       1.000     
   1    56   1     0     2     2  53.0       53.0       1.000     
   1    57   1     4     4     8  54.0       54.0       1.000     
   1    58   1     0     2     2  55.0       55.0       1.000     
   1    59   1     2     3     5  56.0       56.0       1.000     
   1    60   1     0     2     2  57.0       57.0       1.000     
   1    61   1     0     2     2  58.0       58.0       1.000     
   1    62   1     2     3     5  59.0       59.0       1.000     
   1    63   1     3     1     4  60.0       60.0       1.000     
   1    64   1     2     1     3  61.0       61.0       1.000     
   1    65   1     1     2     3  62.0       62.0       1.000     
   1    66   1     1     3     4  63.0       63.0       1.000     
   1    67   1     2     4     6  64.0       64.0       1.000     
   1    68   1     0     2     2  65.0       65.0       1.000     
   1    69   1     2     5     7  66.0       66.0       1.000     
   1    70   1     0     2     2  67.0       67.0       1.000     
   1    71   1     2     2     4  68.0       68.0       1.000     
   1    72   1     0     2     2  69.0       69.0       1.000     
   1    73   1     1     5     6  70.0       70.0       1.000     
   1    74   1     1     4     5  71.0       71.0       1.000     
   1    75   1     2     5     7  72.0       72.0       1.000     
   1    76   1U    3     1     4  72.0       72.0       1.000     
   1    76   2U    5     0     5  72.0       72.0       0.2500    
   1    76   3     3     2     5  72.1       72.1       0.06250   
   1    77   1     1     2     3  72.1       72.1       0.06250   
   1    78   1     0     1     1  72.2       72.2       0.09375   
   1    79   1     2     2     4  72.4       72.4       0.1406    
   1    80   1     0     2     2  72.6       72.6       0.2109    
   1    81   1     0     1     1  72.9       72.9       0.3164    
   1    82   1     0     2     2  73.0       73.0       0.1133    
   1    83   1     0     6     6  73.7       73.7       0.7119    
   1    84   1     0     2     2  74.0       74.0       0.2881    
   1    85   1     2     3     5  74.7       74.7       0.7119    
   1    86   1     0     2     2  75.0       75.0       0.2881    
   1    87   1     0     4     4  76.0       76.0       1.000     
   1    88   1     2     3     5  77.0       77.0       1.000     
   1    89   1     0     4     4  78.0       78.0       1.000     
   1    90   1     2     3     5  79.0       79.0       1.000     
   1    91   1U    6     0     6  79.0       79.0       1.000     
   1    91   2     0     4     4  79.2       79.2       0.2500    
   1    92   1     0     3     3  79.6       79.6       0.3750    
   1    93   1     0     2     2  80.0       80.0       0.3750    
   1    94   1     2     4     6  81.0       81.0       1.000     
   1    95   1U    1     1     2  81.0       81.0       1.000     
   1    95   2     0     3     3  81.2       81.2       0.2500    
   1    96   1     0     4     4  81.6       81.6       0.3750    
   1    97   1     0     2     2  82.0       82.0       0.3750    
   1    98   1     2     6     8  83.0       83.0       1.000     
   1    99   1U    1     1     2  83.0       83.0       1.000     
   1    99   2     0     4     4  83.2       83.2       0.2500    
   1   100   1     0     2     2  83.5       83.5       0.2500    
   1   101   1     0     3     3  83.9       83.9       0.3750    
   1   102   1     0     2     2  84.0       84.0       0.1250    
   1   103   1     4     7    11  85.0       85.0       1.000     
   1   104   1     0     2     2  86.0       86.0       1.000     
   1   105   1U    5     0     5  86.0       86.0       1.000     
   1   105   2     0     2     2  86.2       86.2       0.2500    
   1   106   1     2     2     4  86.6       86.6       0.3750    
   1   107   1     0     4     4  87.0       87.0       0.3750    
   1   108   1     1     1     2  88.0       88.0       1.000     
   1   109   1     5     4     9  89.0       89.0       1.000     
   1   110   1     0     2     2  90.0       90.0       1.000     
   1   111   1     4     4     8  91.0       91.0       1.000     
   1   112   1     1     1     2  92.0       92.0       1.000     
   1   113   1     1     5     6  93.0       93.0       1.000     
   1   114   1     4     6    10  94.0       94.0       1.000     
   1   115   1     0     2     2  95.0       95.0       1.000     
   1   116   1     2     4     6  96.0       96.0       1.000     
   1   117   1     0     2     2  97.0       97.0       1.000     
   1   118   1     2     1     3  98.0       98.0       1.000     
   1   119   1     0     2     2  99.0       99.0       1.000     
   1   120   1     1     0     1  100.       100.       1.000     
                          
 THE ANALYSIS HAS COMPLETED SUCCESSFULLY
