 Abaqus/Standard Learning Edition 2024                  DATE 16-2-2026 TIME 14:04:57
 SUMMARY OF JOB INFORMATION:
 STEP  INC ATT SEVERE EQUIL TOTAL  TOTAL      STEP       INC OF       DOF    IF
               DISCON ITERS ITERS  TIME/    TIME/LPF    TIME/LPF    MONITOR RIKS
               ITERS               FREQ
   1     1   1U    1     1     2  0.00       0.00       1.000     
   1     1   2U    2     4     6  0.00       0.00       0.2500    
   1     1   3     0     1     1  0.0625     0.0625     0.06250   
   1     2   1U    4     2     6  0.0625     0.0625     0.06250   
   1     2   2     0     1     1  0.0781     0.0781     0.01562   
   1     3   1U    4     2     6  0.0781     0.0781     0.02344   
   1     3   2U    1     9    10  0.0781     0.0781     0.005859  
   1     3   3     0     1     1  0.0796     0.0796     0.001465  
   1     4   1U    1     5     6  0.0796     0.0796     0.002197  
   1     4   2     0     1     1  0.0801     0.0801     0.0005493 
   1     5   1     0     1     1  0.0810     0.0810     0.0008240 
   1     6   1     1     5     6  0.0822     0.0822     0.001236  
   1     7   1     0    11    11  0.0834     0.0834     0.001236  
   1     8   1     0     3     3  0.0844     0.0844     0.0009270 
   1     9   1     1     1     2  0.0853     0.0853     0.0009270 
   1    10   1     0     2     2  0.0867     0.0867     0.001390  
   1    11   1     0     1     1  0.0888     0.0888     0.002086  
   1    12   1     0     1     1  0.0919     0.0919     0.003129  
   1    13   1     0     1     1  0.0966     0.0966     0.004693  
   1    14   1     0     1     1  0.104      0.104      0.007039  
   1    15   1     0     1     1  0.114      0.114      0.01056   
   1    16   1     0     1     1  0.130      0.130      0.01584   
   1    17   1     0     1     1  0.154      0.154      0.02376   
   1    18   1U    2     4     6  0.154      0.154      0.03564   
   1    18   2U    2    16    18  0.154      0.154      0.008909  
   1    18   3     1    11    12  0.156      0.156      0.002227  
   1    19   1     0     5     5  0.158      0.158      0.001670  
   1    20   1     1     1     2  0.159      0.159      0.001670  
   1    21   1     0     1     1  0.161      0.161      0.001670  
   1    22   1U    2    16    18  0.161      0.161      0.002506  
   1    22   2     0     1     1  0.162      0.162      0.0006264 
   1    23   1     2     9    11  0.163      0.163      0.0009396 
   1    24   1     0     5     5  0.164      0.164      0.0009396 
   1    25   1     0     5     5  0.164      0.164      0.0009396 
   1    26   1     0     2     2  0.165      0.165      0.0009396 
   1    27   1     0     4     4  0.166      0.166      0.0009396 
   1    28   1     0     2     2  0.168      0.168      0.001409  
   1    29   1     0     2     2  0.170      0.170      0.002114  
   1    30   1     0     1     1  0.173      0.173      0.003171  
   1    31   1     0     2     2  0.178      0.178      0.004757  
   1    32   1     0     2     2  0.185      0.185      0.007135  
   1    33   1     0     2     2  0.196      0.196      0.01070   
   1    34   1     0     2     2  0.212      0.212      0.01605   
   1    35   1     0     2     2  0.236      0.236      0.02408   
   1    36   1     0     3     3  0.272      0.272      0.03612   
   1    37   1     0     4     4  0.326      0.326      0.05418   
   1    38   1U    0     4     4  0.326      0.326      0.08127   
   1    38   2     0     2     2  0.346      0.346      0.02032   
   1    39   1     0     2     2  0.377      0.377      0.03048   
   1    40   1     0     4     4  0.423      0.423      0.04572   
   1    41   1U    0     4     4  0.423      0.423      0.06858   
   1    41   2     0     2     2  0.440      0.440      0.01714   
   1    42   1     0     2     2  0.465      0.465      0.02572   
   1    43   1     0     2     2  0.504      0.504      0.03857   
   1    44   1U    0     4     4  0.504      0.504      0.05786   
   1    44   2     0     3     3  0.518      0.518      0.01447   
   1    45   1     0     2     2  0.540      0.540      0.02170   
   1    46   1     0     2     2  0.573      0.573      0.03255   
   1    47   1     0     3     3  0.622      0.622      0.04882   
   1    48   1U    0     4     4  0.622      0.622      0.07323   
   1    48   2     0     3     3  0.640      0.640      0.01831   
   1    49   1     0     2     2  0.667      0.667      0.02746   
   1    50   1     0     3     3  0.709      0.709      0.04119   
   1    51   1U    0     4     4  0.709      0.709      0.06179   
   1    51   2     0     2     2  0.724      0.724      0.01545   
   1    52   1     0     2     2  0.747      0.747      0.02317   
   1    53   1     0     3     3  0.782      0.782      0.03476   
   1    54   1     0     4     4  0.834      0.834      0.05213   
   1    55   1U    0     5     5  0.834      0.834      0.07820   
   1    55   2     0     2     2  0.854      0.854      0.01955   
   1    56   1     0     2     2  0.883      0.883      0.02933   
   1    57   1     0     2     2  0.927      0.927      0.04399   
   1    58   1U    0     4     4  0.927      0.927      0.07312   
   1    58   2     0     2     2  0.945      0.945      0.01828   
   1    59   1     0     2     2  0.973      0.973      0.02742   
   1    60   1     0     2     2  1.00       1.00       0.02742   
   1    61   1     0     3     3  1.06       1.06       0.06170   
   1    62   1U    0     4     4  1.06       1.06       0.09254   
   1    62   2     0     3     3  1.08       1.08       0.02314   
   1    63   1     0     2     2  1.12       1.12       0.03470   
   1    64   1     0     2     2  1.17       1.17       0.05206   
   1    65   1U    0     4     4  1.17       1.17       0.07808   
   1    65   2     0     3     3  1.19       1.19       0.01952   
   1    66   1     0     3     3  1.22       1.22       0.02928   
   1    67   1     0     2     2  1.26       1.26       0.04392   
   1    68   1U    0     4     4  1.26       1.26       0.06588   
   1    68   2     0     3     3  1.28       1.28       0.01647   
   1    69   1     0     2     2  1.31       1.31       0.02471   
   1    70   1     0     2     2  1.34       1.34       0.03706   
   1    71   1     0     3     3  1.40       1.40       0.05559   
   1    72   1U    0     4     4  1.40       1.40       0.08338   
   1    72   2     0     2     2  1.42       1.42       0.02085   
   1    73   1     0     3     3  1.45       1.45       0.03127   
   1    74   1     0     2     2  1.50       1.50       0.04690   
   1    75   1U    0     4     4  1.50       1.50       0.07035   
   1    75   2     0     2     2  1.51       1.51       0.01759   
   1    76   1     0     3     3  1.54       1.54       0.02638   
   1    77   1     0     3     3  1.58       1.58       0.03957   
   1    78   1     0     2     2  1.64       1.64       0.05936   
   1    79   1U    0     4     4  1.64       1.64       0.08904   
   1    79   2     0     2     2  1.66       1.66       0.02226   
   1    80   1     0     2     2  1.70       1.70       0.03339   
   1    81   1     0     2     2  1.75       1.75       0.05009   
   1    82   1U    0     4     4  1.75       1.75       0.07513   
   1    82   2     0     2     2  1.76       1.76       0.01878   
   1    83   1     0     2     2  1.79       1.79       0.02817   
   1    84   1     0     3     3  1.84       1.84       0.04226   
   1    85   1     0     4     4  1.90       1.90       0.06339   
   1    86   1U    0     4     4  1.90       1.90       0.1016    
   1    86   2     0     2     2  1.92       1.92       0.02540   
   1    87   1     0     3     3  1.96       1.96       0.03810   
   1    88   1     0     2     2  2.00       2.00       0.03810   
   1    89   1U    0     4     4  2.00       2.00       0.08571   
   1    89   2     0     3     3  2.02       2.02       0.02143   
   1    90   1     0     2     2  2.05       2.05       0.03214   
   1    91   1     0     3     3  2.10       2.10       0.04821   
   1    92   1U    0     4     4  2.10       2.10       0.07232   
   1    92   2     0     2     2  2.12       2.12       0.01808   
   1    93   1     0     3     3  2.15       2.15       0.02712   
   1    94   1     0     3     3  2.19       2.19       0.04068   
   1    95   1     0     2     2  2.25       2.25       0.06102   
   1    96   1U    0     4     4  2.25       2.25       0.09153   
   1    96   2     0     2     2  2.27       2.27       0.02288   
   1    97   1     0     2     2  2.31       2.31       0.03432   
   1    98   1     0     2     2  2.36       2.36       0.05149   
   1    99   1U    0     4     4  2.36       2.36       0.07723   
   1    99   2     0     2     2  2.38       2.38       0.01931   
   1   100   1     0     2     2  2.41       2.41       0.02896   
   1   101   1     0     2     2  2.45       2.45       0.04344   
   1   102   1     0     2     2  2.51       2.51       0.06516   
   1   103   1U    0     4     4  2.51       2.51       0.09774   
   1   103   2     0     2     2  2.54       2.54       0.02444   
   1   104   1     0     2     2  2.58       2.58       0.03665   
   1   105   1     0     2     2  2.63       2.63       0.05498   
   1   106   1U    0     4     4  2.63       2.63       0.08247   
   1   106   2     0     2     2  2.65       2.65       0.02062   
   1   107   1     0     2     2  2.68       2.68       0.03093   
   1   108   1     0     2     2  2.73       2.73       0.04639   
   1   109   1     0     2     2  2.80       2.80       0.06959   
   1   110   1U    0     4     4  2.80       2.80       0.1044    
   1   110   2     0     2     2  2.82       2.82       0.02609   
   1   111   1     0     2     2  2.86       2.86       0.03914   
   1   112   1     0     2     2  2.92       2.92       0.05871   
   1   113   1U    0     4     4  2.92       2.92       0.07820   
   1   113   2     0     2     2  2.94       2.94       0.01955   
   1   114   1     0     2     2  2.97       2.97       0.02933   
   1   115   1     0     2     2  3.00       3.00       0.02933   
   1   116   1     0     2     2  3.04       3.04       0.04399   
   1   117   1     0     2     2  3.11       3.11       0.06598   
   1   118   1U    0     4     4  3.11       3.11       0.09898   
   1   118   2     0     2     2  3.13       3.13       0.02474   
   1   119   1     0     2     2  3.17       3.17       0.03712   
   1   120   1     0     2     2  3.23       3.23       0.05567   
   1   121   1U    0     4     4  3.23       3.23       0.08351   
   1   121   2     0     2     2  3.25       3.25       0.02088   
   1   122   1     0     2     2  3.28       3.28       0.03132   
   1   123   1     0     2     2  3.33       3.33       0.04698   
   1   124   1U    0     4     4  3.33       3.33       0.07046   
   1   124   2     0     2     2  3.34       3.34       0.01762   
   1   125   1     0     2     2  3.37       3.37       0.02642   
   1   126   1     0     2     2  3.41       3.41       0.03964   
   1   127   1     0     2     2  3.47       3.47       0.05945   
   1   128   1U    0     4     4  3.47       3.47       0.08918   
   1   128   2     0     2     2  3.49       3.49       0.02229   
   1   129   1     0     2     2  3.53       3.53       0.03344   
   1   130   1     0     2     2  3.58       3.58       0.05016   
   1   131   1U    0     4     4  3.58       3.58       0.07525   
   1   131   2     0     2     2  3.59       3.59       0.01881   
   1   132   1     0     2     2  3.62       3.62       0.02822   
   1   133   1     0     2     2  3.67       3.67       0.04233   
   1   134   1     0     2     2  3.73       3.73       0.06349   
   1   135   1U    0     4     4  3.73       3.73       0.09523   
   1   135   2     0     2     2  3.75       3.75       0.02381   
   1   136   1     0     2     2  3.79       3.79       0.03571   
   1   137   1     0     2     2  3.84       3.84       0.05357   
   1   138   1U    0     4     4  3.84       3.84       0.08035   
   1   138   2     0     2     2  3.86       3.86       0.02009   
   1   139   1     0     2     2  3.89       3.89       0.03013   
   1   140   1     0     2     2  3.94       3.94       0.04520   
   1   141   1     0     3     3  4.00       4.00       0.06295   
   1   142   1U    0     4     4  4.00       4.00       0.09442   
   1   142   2     0     2     2  4.02       4.02       0.02361   
   1   143   1     0     2     2  4.06       4.06       0.03541   
   1   144   1     0     2     2  4.11       4.11       0.05311   
   1   145   1U    0     4     4  4.11       4.11       0.07967   
   1   145   2     0     2     2  4.13       4.13       0.01992   
   1   146   1     0     2     2  4.16       4.16       0.02988   
   1   147   1     0     2     2  4.21       4.21       0.04481   
   1   148   1     0     2     2  4.27       4.27       0.06722   
   1   149   1U    0     4     4  4.27       4.27       0.1008    
   1   149   2     0     2     2  4.30       4.30       0.02521   
   1   150   1     0     2     2  4.34       4.34       0.03781   
   1   151   1     0     2     2  4.39       4.39       0.05672   
   1   152   1U    0     4     4  4.39       4.39       0.08507   
   1   152   2     0     2     2  4.41       4.41       0.02127   
   1   153   1     0     2     2  4.45       4.45       0.03190   
   1   154   1     0     2     2  4.49       4.49       0.04785   
   1   155   1U    0     4     4  4.49       4.49       0.07178   
   1   155   2     0     2     2  4.51       4.51       0.01795   
   1   156   1     0     2     2  4.54       4.54       0.02692   
   1   157   1     0     2     2  4.58       4.58       0.04038   
   1   158   1     0     2     2  4.64       4.64       0.06057   
   1   159   1U    0     4     4  4.64       4.64       0.09085   
   1   159   2     0     2     2  4.66       4.66       0.02271   
   1   160   1     0     2     2  4.70       4.70       0.03407   
   1   161   1     0     2     2  4.75       4.75       0.05110   
   1   162   1U    0     4     4  4.75       4.75       0.07665   
   1   162   2     0     2     2  4.77       4.77       0.01916   
   1   163   1     0     2     2  4.80       4.80       0.02875   
   1   164   1     0     2     2  4.84       4.84       0.04312   
   1   165   1     0     2     2  4.90       4.90       0.06468   
   1   166   1U    0     4     4  4.90       4.90       0.09590   
   1   166   2     0     2     2  4.93       4.93       0.02397   
   1   167   1     0     2     2  4.96       4.96       0.03596   
   1   168   1     0     2     2  5.00       5.00       0.03596   
   1   169   1     0     2     2  5.05       5.05       0.05394   
   1   170   1U    0     4     4  5.05       5.05       0.08092   
   1   170   2     0     2     2  5.07       5.07       0.02023   
   1   171   1     0     2     2  5.10       5.10       0.03034   
   1   172   1     0     2     2  5.15       5.15       0.04551   
   1   173   1     0     2     2  5.22       5.22       0.06827   
   1   174   1U    0     4     4  5.22       5.22       0.1024    
   1   174   2     0     2     2  5.24       5.24       0.02560   
   1   175   1     0     2     2  5.28       5.28       0.03840   
   1   176   1     0     2     2  5.34       5.34       0.05760   
   1   177   1U    0     4     4  5.34       5.34       0.08641   
   1   177   2     0     2     2  5.36       5.36       0.02160   
   1   178   1     0     2     2  5.39       5.39       0.03240   
   1   179   1     0     2     2  5.44       5.44       0.04860   
   1   180   1U    0     4     4  5.44       5.44       0.07291   
   1   180   2     0     2     2  5.46       5.46       0.01823   
   1   181   1     0     2     2  5.49       5.49       0.02734   
   1   182   1     0     2     2  5.53       5.53       0.04101   
   1   183   1     0     2     2  5.59       5.59       0.06151   
   1   184   1U    0     4     4  5.59       5.59       0.09227   
   1   184   2     0     2     2  5.61       5.61       0.02307   
   1   185   1     0     2     2  5.65       5.65       0.03460   
   1   186   1     0     2     2  5.70       5.70       0.05190   
   1   187   1U    0     4     4  5.70       5.70       0.07785   
   1   187   2     0     2     2  5.72       5.72       0.01946   
   1   188   1     0     2     2  5.75       5.75       0.02920   
   1   189   1     0     2     2  5.79       5.79       0.04379   
   1   190   1     0     2     2  5.86       5.86       0.06569   
   1   191   1U    0     4     4  5.86       5.86       0.09853   
   1   191   2     0     2     2  5.88       5.88       0.02463   
   1   192   1     0     2     2  5.92       5.92       0.03695   
   1   193   1     0     2     2  5.98       5.98       0.05543   
   1   194   1     0     2     2  6.00       6.00       0.02467   
   1   195   1U    0     4     4  6.00       6.00       0.1247    
   1   195   2     0     2     2  6.03       6.03       0.03118   
   1   196   1     0     2     2  6.08       6.08       0.04677   
   1   197   1     0     2     2  6.15       6.15       0.07015   
   1   198   1U    0     4     4  6.15       6.15       0.1052    
   1   198   2     0     2     2  6.17       6.17       0.02631   
   1   199   1     0     2     2  6.21       6.21       0.03946   
   1   200   1     0     2     2  6.27       6.27       0.05919   
   1   201   1U    0     4     4  6.27       6.27       0.08878   
   1   201   2     0     2     2  6.30       6.30       0.02220   
   1   202   1     0     2     2  6.33       6.33       0.03329   
   1   203   1     0     2     2  6.38       6.38       0.04994   
   1   204   1U    0     4     4  6.38       6.38       0.07491   
   1   204   2     0     2     2  6.40       6.40       0.01873   
   1   205   1     0     2     2  6.43       6.43       0.02809   
   1   206   1     0     2     2  6.47       6.47       0.04214   
   1   207   1     0     2     2  6.53       6.53       0.06320   
   1   208   1U    0     4     4  6.53       6.53       0.09481   
   1   208   2     0     2     2  6.55       6.55       0.02370   
   1   209   1     0     2     2  6.59       6.59       0.03555   
   1   210   1     0     2     2  6.64       6.64       0.05333   
   1   211   1U    0     4     4  6.64       6.64       0.07999   
   1   211   2     0     2     2  6.66       6.66       0.02000   
   1   212   1     0     2     2  6.69       6.69       0.03000   
   1   213   1     0     2     2  6.74       6.74       0.04500   
   1   214   1     0     2     2  6.81       6.81       0.06749   
   1   215   1U    0     4     4  6.81       6.81       0.1012    
   1   215   2     0     2     2  6.83       6.83       0.02531   
   1   216   1     0     2     2  6.87       6.87       0.03797   
   1   217   1     0     2     2  6.93       6.93       0.05695   
   1   218   1U    0     4     4  6.93       6.93       0.07408   
   1   218   2     0     2     2  6.94       6.94       0.01852   
   1   219   1     0     2     2  6.97       6.97       0.02778   
   1   220   1     0     2     2  7.00       7.00       0.02778   
   1   221   1     0     2     2  7.04       7.04       0.04167   
   1   222   1     0     2     2  7.10       7.10       0.06251   
   1   223   1U    0     4     4  7.10       7.10       0.09376   
   1   223   2     0     2     2  7.13       7.13       0.02344   
   1   224   1     0     2     2  7.16       7.16       0.03516   
   1   225   1     0     2     2  7.22       7.22       0.05274   
   1   226   1U    0     4     4  7.22       7.22       0.07911   
   1   226   2     0     2     2  7.24       7.24       0.01978   
   1   227   1     0     2     2  7.26       7.26       0.02967   
   1   228   1     0     2     2  7.31       7.31       0.04450   
   1   229   1     0     2     2  7.38       7.38       0.06675   
   1   230   1U    0     4     4  7.38       7.38       0.1001    
   1   230   2     0     2     2  7.40       7.40       0.02503   
   1   231   1     0     2     2  7.44       7.44       0.03755   
   1   232   1     0     2     2  7.50       7.50       0.05632   
   1   233   1U    0     4     4  7.50       7.50       0.08448   
   1   233   2     0     2     2  7.52       7.52       0.02112   
   1   234   1     0     2     2  7.55       7.55       0.03168   
   1   235   1     0     2     2  7.60       7.60       0.04752   
   1   236   1     0     2     2  7.67       7.67       0.07128   
   1   237   1U    0     4     4  7.67       7.67       0.1069    
   1   237   2     0     2     2  7.69       7.69       0.02673   
   1   238   1     0     2     2  7.73       7.73       0.04009   
   1   239   1     0     2     2  7.79       7.79       0.06014   
   1   240   1U    0     4     4  7.79       7.79       0.09021   
   1   240   2     0     2     2  7.82       7.82       0.02255   
   1   241   1     0     2     2  7.85       7.85       0.03383   
   1   242   1     0     2     2  7.90       7.90       0.05074   
   1   243   1U    0     4     4  7.90       7.90       0.07612   
   1   243   2     0     2     2  7.92       7.92       0.01903   
   1   244   1     0     2     2  7.95       7.95       0.02854   
   1   245   1     0     2     2  8.00       8.00       0.05163   
   1   246   1U    0     4     4  8.00       8.00       0.07745   
   1   246   2     0     2     2  8.02       8.02       0.01936   
   1   247   1     0     2     2  8.05       8.05       0.02904   
   1   248   1     0     2     2  8.09       8.09       0.04357   
   1   249   1     0     2     2  8.16       8.16       0.06535   
   1   250   1U    0     4     4  8.16       8.16       0.09802   
   1   250   2     0     2     2  8.18       8.18       0.02451   
   1   251   1     0     2     2  8.22       8.22       0.03676   
   1   252   1     0     2     2  8.27       8.27       0.05514   
   1   253   1U    0     4     4  8.27       8.27       0.08271   
   1   253   2     0     2     2  8.29       8.29       0.02068   
   1   254   1     0     2     2  8.33       8.33       0.03102   
   1   255   1     0     2     2  8.37       8.37       0.04652   
   1   256   1     0     2     2  8.44       8.44       0.06978   
   1   257   1U    0     4     4  8.44       8.44       0.1047    
   1   257   2     0     2     2  8.47       8.47       0.02617   
   1   258   1     0     2     2  8.51       8.51       0.03925   
   1   259   1     0     2     2  8.57       8.57       0.05888   
   1   260   1U    0     4     4  8.57       8.57       0.08832   
   1   260   2     0     2     2  8.59       8.59       0.02208   
   1   261   1     0     2     2  8.62       8.62       0.03312   
   1   262   1     0     3     3  8.67       8.67       0.04968   
   1   263   1     0     2     2  8.75       8.75       0.07452   
   1   264   1U    0     4     4  8.75       8.75       0.1118    
   1   264   2     0     2     2  8.77       8.77       0.02795   
   1   265   1     0     2     2  8.82       8.82       0.04192   
   1   266   1     0     2     2  8.88       8.88       0.06288   
   1   267   1U    0     4     4  8.88       8.88       0.09432   
   1   267   2     0     2     2  8.90       8.90       0.02358   
   1   268   1     0     2     2  8.94       8.94       0.03537   
   1   269   1     0     2     2  9.00       9.00       0.06288   
   1   270   1U    0     4     4  9.00       9.00       0.09432   
   1   270   2     0     2     2  9.02       9.02       0.02358   
   1   271   1     0     2     2  9.06       9.06       0.03537   
   1   272   1     0     2     2  9.11       9.11       0.05305   
   1   273   1U    0     4     4  9.11       9.11       0.07958   
   1   273   2     0     2     2  9.13       9.13       0.01990   
   1   274   1     0     2     2  9.16       9.16       0.02984   
   1   275   1     0     2     2  9.21       9.21       0.04476   
   1   276   1     0     2     2  9.27       9.27       0.06715   
   1   277   1U    0     4     4  9.27       9.27       0.1007    
   1   277   2     0     2     2  9.30       9.30       0.02518   
   1   278   1     0     2     2  9.34       9.34       0.03777   
   1   279   1     0     2     2  9.39       9.39       0.05665   
   1   280   1U    0     4     4  9.39       9.39       0.08498   
   1   280   2     0     2     2  9.41       9.41       0.02125   
   1   281   1     0     2     2  9.45       9.45       0.03187   
   1   282   1     0     2     2  9.49       9.49       0.04780   
   1   283   1     0     3     3  9.57       9.57       0.07170   
   1   284   1U    0     4     4  9.57       9.57       0.1076    
   1   284   2     0     2     2  9.59       9.59       0.02689   
   1   285   1     0     2     2  9.63       9.63       0.04033   
   1   286   1     0     3     3  9.69       9.69       0.06050   
   1   287   1U    0     4     4  9.69       9.69       0.09075   
   1   287   2     0     2     2  9.72       9.72       0.02269   
   1   288   1     0     2     2  9.75       9.75       0.03403   
   1   289   1     0     3     3  9.80       9.80       0.05105   
   1   290   1U    0     4     4  9.80       9.80       0.07657   
   1   290   2     0     2     2  9.82       9.82       0.01914   
   1   291   1     0     2     2  9.85       9.85       0.02871   
   1   292   1     0     2     2  9.89       9.89       0.04307   
   1   293   1     0     3     3  9.96       9.96       0.06461   
   1   294   1     0     2     2  10.0       10.0       0.04310   
   1   295   1U    0     4     4  10.0       10.0       0.1454    
   1   295   2     0     2     2  10.0       10.0       0.03634   
   1   296   1     0     3     3  10.1       10.1       0.05451   
   1   297   1U    0     4     4  10.1       10.1       0.08177   
   1   297   2     0     2     2  10.1       10.1       0.02044   
   1   298   1     0     2     2  10.1       10.1       0.03066   
   1   299   1     0     3     3  10.2       10.2       0.04599   
   1   300   1     0     3     3  10.3       10.3       0.06899   
   1   301   1U    0     4     4  10.3       10.3       0.1035    
   1   301   2     0     2     2  10.3       10.3       0.02587   
   1   302   1     0     2     2  10.3       10.3       0.03881   
   1   303   1     0     2     2  10.4       10.4       0.05821   
   1   304   1U    0     4     4  10.4       10.4       0.08732   
   1   304   2     0     2     2  10.4       10.4       0.02183   
   1   305   1     0     2     2  10.4       10.4       0.03274   
   1   306   1     0     2     2  10.5       10.5       0.04912   
   1   307   1     0     2     2  10.6       10.6       0.07367   
   1   308   1U    0     4     4  10.6       10.6       0.1105    
   1   308   2     0     2     2  10.6       10.6       0.02763   
   1   309   1     0     2     2  10.6       10.6       0.04144   
   1   310   1     0     2     2  10.7       10.7       0.06216   
   1   311   1U    0     4     4  10.7       10.7       0.09324   
   1   311   2     0     2     2  10.7       10.7       0.02331   
   1   312   1     0     2     2  10.7       10.7       0.03497   
   1   313   1     0     2     2  10.8       10.8       0.05245   
   1   314   1U    0     4     4  10.8       10.8       0.07867   
   1   314   2     0     2     2  10.8       10.8       0.01967   
   1   315   1     0     2     2  10.8       10.8       0.02950   
   1   316   1     0     2     2  10.9       10.9       0.04425   
   1   317   1     0     2     2  11.0       11.0       0.06638   
   1   318   1     0     2     2  11.0       11.0       0.04104   
   1   319   1U    0     4     4  11.0       11.0       0.1494    
   1   319   2     0     2     2  11.0       11.0       0.03734   
   1   320   1     0     2     2  11.1       11.1       0.05601   
   1   321   1U    0     4     4  11.1       11.1       0.08401   
   1   321   2     0     2     2  11.1       11.1       0.02100   
   1   322   1     0     2     2  11.1       11.1       0.03151   
   1   323   1     0     2     2  11.2       11.2       0.04726   
   1   324   1     0     2     2  11.3       11.3       0.07089   
   1   325   1U    0     4     4  11.3       11.3       0.1063    
   1   325   2     0     2     2  11.3       11.3       0.02658   
   1   326   1     0     2     2  11.3       11.3       0.03987   
   1   327   1     0     2     2  11.4       11.4       0.05981   
   1   328   1U    0     4     4  11.4       11.4       0.08972   
   1   328   2     0     2     2  11.4       11.4       0.02243   
   1   329   1     0     2     2  11.4       11.4       0.03364   
   1   330   1     0     2     2  11.5       11.5       0.05047   
   1   331   1U    0     4     4  11.5       11.5       0.07570   
   1   331   2     0     2     2  11.5       11.5       0.01892   
   1   332   1     0     2     2  11.5       11.5       0.02839   
   1   333   1     0     2     2  11.6       11.6       0.04258   
   1   334   1     0     2     2  11.7       11.7       0.06387   
   1   335   1U    0     4     4  11.7       11.7       0.09580   
   1   335   2     0     2     2  11.7       11.7       0.02395   
   1   336   1     0     2     2  11.7       11.7       0.03593   
   1   337   1     0     2     2  11.8       11.8       0.05389   
   1   338   1U    0     4     4  11.8       11.8       0.08084   
   1   338   2     0     2     2  11.8       11.8       0.02021   
   1   339   1     0     2     2  11.8       11.8       0.03031   
   1   340   1     0     2     2  11.9       11.9       0.04547   
   1   341   1     0     2     2  11.9       11.9       0.06820   
   1   342   1U    0     4     4  11.9       11.9       0.07147   
   1   342   2     0     2     2  11.9       11.9       0.01787   
   1   343   1     0     2     2  12.0       12.0       0.02680   
   1   344   1     0     2     2  12.0       12.0       0.02680   
   1   345   1     0     2     2  12.0       12.0       0.04020   
   1   346   1     0     2     2  12.1       12.1       0.06030   
   1   347   1U    0     4     4  12.1       12.1       0.09045   
   1   347   2     0     2     2  12.1       12.1       0.02261   
   1   348   1     0     2     2  12.2       12.2       0.03392   
   1   349   1     0     2     2  12.2       12.2       0.05088   
   1   350   1U    0     4     4  12.2       12.2       0.07632   
   1   350   2     0     2     2  12.2       12.2       0.01908   
   1   351   1     0     2     2  12.3       12.3       0.02862   
   1   352   1     0     2     2  12.3       12.3       0.04293   
   1   353   1     0     2     2  12.4       12.4       0.06439   
   1   354   1U    0     4     4  12.4       12.4       0.09659   
   1   354   2     0     2     2  12.4       12.4       0.02415   
   1   355   1     0     2     2  12.4       12.4       0.03622   
   1   356   1     0     2     2  12.5       12.5       0.05433   
   1   357   1U    0     4     4  12.5       12.5       0.08150   
   1   357   2     0     2     2  12.5       12.5       0.02037   
   1   358   1     0     2     2  12.5       12.5       0.03056   
   1   359   1     0     2     2  12.6       12.6       0.04584   
   1   360   1     0     2     2  12.6       12.6       0.06876   
   1   361   1U    0     4     4  12.6       12.6       0.1031    
   1   361   2     0     2     2  12.7       12.7       0.02579   
   1   362   1     0     2     2  12.7       12.7       0.03868   
   1   363   1     0     2     2  12.8       12.8       0.05802   
   1   364   1U    0     4     4  12.8       12.8       0.08703   
   1   364   2     0     2     2  12.8       12.8       0.02176   
   1   365   1     0     2     2  12.8       12.8       0.03264   
   1   366   1     0     2     2  12.9       12.9       0.04895   
   1   367   1U    0     4     4  12.9       12.9       0.07343   
   1   367   2     0     2     2  12.9       12.9       0.01836   
   1   368   1     0     2     2  12.9       12.9       0.02754   
   1   369   1     0     2     2  13.0       13.0       0.04131   
   1   370   1     0     2     2  13.0       13.0       0.04378   
   1   371   1     0     2     2  13.1       13.1       0.06567   
   1   372   1U    0     4     4  13.1       13.1       0.09851   
   1   372   2     0     2     2  13.1       13.1       0.02463   
   1   373   1     0     2     2  13.1       13.1       0.03694   
   1   374   1     0     2     2  13.2       13.2       0.05541   
   1   375   1U    0     4     4  13.2       13.2       0.08312   
   1   375   2     0     2     2  13.2       13.2       0.02078   
   1   376   1     0     2     2  13.2       13.2       0.03117   
   1   377   1     0     2     2  13.3       13.3       0.04675   
   1   378   1     0     2     2  13.4       13.4       0.07013   
   1   379   1U    0     4     4  13.4       13.4       0.1052    
   1   379   2     0     2     2  13.4       13.4       0.02630   
   1   380   1     0     2     2  13.4       13.4       0.03945   
   1   381   1U    4     0     4  13.4       13.4       0.05917   
   1   381   2     0     2     2  13.4       13.4       0.01479   
   1   382   1     0     2     2  13.5       13.5       0.02219   
   1   383   1U    4     0     4  13.5       13.5       0.03329   
   1   383   2     0     1     1  13.5       13.5       0.008321  
   1   384   1U    4     0     4  13.5       13.5       0.01248   
   1   384   2     4     3     7  13.5       13.5       0.003120  
   1   385   1     0     2     2  13.5       13.5       0.004681  
   1   386   1U    4     4     8  13.5       13.5       0.007021  
   1   386   2     1     2     3  13.5       13.5       0.001755  
   1   387   1     1     2     3  13.5       13.5       0.002633  
   1   388   1     0     2     2  13.5       13.5       0.003949  
   1   389   1     1     2     3  13.5       13.5       0.005924  
   1   390   1     2     1     3  13.5       13.5       0.008886  
   1   391   1     0     2     2  13.5       13.5       0.01333   
   1   392   1U    0     4     4  13.5       13.5       0.01999   
   1   392   2     0     1     1  13.5       13.5       0.004998  
   1   393   1     0     1     1  13.5       13.5       0.007498  
   1   394   1     0     1     1  13.5       13.5       0.01125   
   1   395   1     0     1     1  13.5       13.5       0.01687   
   1   396   1     0     2     2  13.6       13.6       0.02530   
   1   397   1     0     2     2  13.6       13.6       0.03796   
   1   398   1     0     2     2  13.7       13.7       0.05693   
   1   399   1U    0     4     4  13.7       13.7       0.08540   
   1   399   2     0     2     2  13.7       13.7       0.02135   
   1   400   1     0     2     2  13.7       13.7       0.03203   
   1   401   1     0     2     2  13.8       13.8       0.04804   
   1   402   1     0     2     2  13.8       13.8       0.07206   
   1   403   1U    0     4     4  13.8       13.8       0.1081    
   1   403   2     0     2     2  13.9       13.9       0.02702   
   1   404   1     0     2     2  13.9       13.9       0.04053   
   1   405   1     0     2     2  14.0       14.0       0.06080   
   1   406   1     0     2     2  14.0       14.0       0.03054   
   1   407   1U    0     4     4  14.0       14.0       0.1368    
   1   407   2     0     2     2  14.0       14.0       0.03420   
   1   408   1     0     2     2  14.1       14.1       0.05130   
   1   409   1     0     3     3  14.2       14.2       0.07695   
   1   410   1U    0     4     4  14.2       14.2       0.1154    
   1   410   2     0     2     2  14.2       14.2       0.02886   
   1   411   1     0     2     2  14.2       14.2       0.04328   
   1   412   1     0     2     2  14.3       14.3       0.06493   
   1   413   1U    0     4     4  14.3       14.3       0.09739   
   1   413   2     0     2     2  14.3       14.3       0.02435   
   1   414   1     0     2     2  14.4       14.4       0.03652   
   1   415   1     0     3     3  14.4       14.4       0.05478   
   1   416   1U    0     4     4  14.4       14.4       0.08217   
   1   416   2     0     2     2  14.4       14.4       0.02054   
   1   417   1     0     2     2  14.5       14.5       0.03081   
   1   418   1     0     2     2  14.5       14.5       0.04622   
   1   419   1     0     2     2  14.6       14.6       0.06933   
   1   420   1U    0     4     4  14.6       14.6       0.1040    
   1   420   2     0     2     2  14.6       14.6       0.02600   
   1   421   1     0     2     2  14.6       14.6       0.03900   
   1   422   1     0     3     3  14.7       14.7       0.05850   
   1   423   1U    0     4     4  14.7       14.7       0.08775   
   1   423   2     0     2     2  14.7       14.7       0.02194   
   1   424   1     0     2     2  14.8       14.8       0.03291   
   1   425   1     0     2     2  14.8       14.8       0.04936   
   1   426   1     0     3     3  14.9       14.9       0.07404   
   1   427   1U    0     4     4  14.9       14.9       0.1162    
   1   427   2     0     2     2  14.9       14.9       0.02905   
   1   428   1     0     2     2  15.0       15.0       0.04357   
   1   429   1     0     2     2  15.0       15.0       0.04357   
   1   430   1U    0     4     4  15.0       15.0       0.09804   
   1   430   2     0     3     3  15.0       15.0       0.02451   
   1   431   1     0     2     2  15.1       15.1       0.03676   
   1   432   1     0     2     2  15.1       15.1       0.05515   
   1   433   1U    0     4     4  15.1       15.1       0.08272   
   1   433   2     0     2     2  15.1       15.1       0.02068   
   1   434   1     0     2     2  15.2       15.2       0.03102   
   1   435   1     0     3     3  15.2       15.2       0.04653   
   1   436   1U    0     4     4  15.2       15.2       0.06979   
   1   436   2     0     1     1  15.2       15.2       0.01745   
   1   437   1     0     2     2  15.3       15.3       0.02617   
   1   438   1     0     2     2  15.3       15.3       0.03926   
   1   439   1     0     2     2  15.4       15.4       0.05889   
   1   440   1U    0     4     4  15.4       15.4       0.08833   
   1   440   2     0     2     2  15.4       15.4       0.02208   
   1   441   1     0     3     3  15.4       15.4       0.03312   
   1   442   1     0     2     2  15.5       15.5       0.04969   
   1   443   1     0     5     5  15.5       15.5       0.07453   
   1   444   1U    0     4     4  15.5       15.5       0.07453   
   1   444   2     0     2     2  15.6       15.6       0.01863   
   1   445   1     0     2     2  15.6       15.6       0.01863   
   1   446   1     0     1     1  15.6       15.6       0.02795   
   1   447   1     0     3     3  15.6       15.6       0.04192   
   1   448   1     0     2     2  15.7       15.7       0.06289   
   1   449   1U    0     4     4  15.7       15.7       0.09433   
   1   449   2     0     2     2  15.7       15.7       0.02358   
   1   450   1     0     2     2  15.8       15.8       0.03537   
   1   451   1     0     2     2  15.8       15.8       0.05306   
   1   452   1U    0     4     4  15.8       15.8       0.07959   
   1   452   2     0     1     1  15.8       15.8       0.01990   
   1   453   1     0     1     1  15.9       15.9       0.02985   
   1   454   1     0     3     3  15.9       15.9       0.04477   
   1   455   1     0     5     5  16.0       16.0       0.06715   
   1   456   1     0     2     2  16.0       16.0       0.02046   
   1   457   1     0     2     2  16.1       16.1       0.06715   
   1   458   1U    0     4     4  16.1       16.1       0.1007    
   1   458   2     0     2     2  16.1       16.1       0.02518   
   1   459   1     0     2     2  16.1       16.1       0.03777   
   1   460   1     0     3     3  16.2       16.2       0.05666   
   1   461   1U    0     5     5  16.2       16.2       0.08499   
   1   461   2     0     2     2  16.2       16.2       0.02125   
   1   462   1     0     2     2  16.2       16.2       0.03187   
   1   463   1     0     2     2  16.3       16.3       0.04781   
   1   464   1     0     5     5  16.4       16.4       0.07171   
   1   465   1U    0     4     4  16.4       16.4       0.07171   
   1   465   2     0     2     2  16.4       16.4       0.01793   
   1   466   1     0     2     2  16.4       16.4       0.01793   
   1   467   1     0     2     2  16.4       16.4       0.02689   
   1   468   1     0     2     2  16.5       16.5       0.04034   
   1   469   1     0     2     2  16.5       16.5       0.06051   
   1   470   1U    0     4     4  16.5       16.5       0.09076   
   1   470   2     0     2     2  16.5       16.5       0.02269   
   1   471   1     0     2     2  16.6       16.6       0.03403   
   1   472   1     0     2     2  16.6       16.6       0.05105   
   1   473   1U    0     4     4  16.6       16.6       0.07658   
   1   473   2     0     2     2  16.6       16.6       0.01914   
   1   474   1     0     2     2  16.7       16.7       0.02872   
   1   475   1     0     2     2  16.7       16.7       0.04308   
   1   476   1     0     2     2  16.8       16.8       0.06461   
   1   477   1U    0     4     4  16.8       16.8       0.09692   
   1   477   2     0     2     2  16.8       16.8       0.02423   
   1   478   1     0     2     2  16.8       16.8       0.03634   
   1   479   1     0     2     2  16.9       16.9       0.05452   
   1   480   1U    0     5     5  16.9       16.9       0.09859   
   1   480   2     0     1     1  16.9       16.9       0.02465   
   1   481   1     0     2     2  17.0       17.0       0.03697   
   1   482   1     0     2     2  17.0       17.0       0.03697   
   1   483   1U    0     4     4  17.0       17.0       0.08318   
   1   483   2     0     1     1  17.0       17.0       0.02080   
   1   484   1     0     2     2  17.1       17.1       0.03119   
   1   485   1     0     2     2  17.1       17.1       0.04679   
   1   486   1     0     2     2  17.2       17.2       0.07018   
   1   487   1U    0     4     4  17.2       17.2       0.1053    
   1   487   2     0     2     2  17.2       17.2       0.02632   
   1   488   1     0     4     4  17.2       17.2       0.03948   
   1   489   1     0     2     2  17.3       17.3       0.05922   
   1   490   1U    0     4     4  17.3       17.3       0.08883   
   1   490   2     0     1     1  17.3       17.3       0.02221   
   1   491   1     0     1     1  17.3       17.3       0.03331   
   1   492   1     0     2     2  17.4       17.4       0.04997   
   1   493   1     0     3     3  17.5       17.5       0.07495   
   1   494   1U    0     4     4  17.5       17.5       0.1124    
   1   494   2     0     2     2  17.5       17.5       0.02811   
   1   495   1     0     2     2  17.5       17.5       0.04216   
   1   496   1     0     3     3  17.6       17.6       0.06324   
   1   497   1U    0     4     4  17.6       17.6       0.09486   
   1   497   2     0     3     3  17.6       17.6       0.02371   
   1   498   1     0     3     3  17.7       17.7       0.03557   
   1   499   1     0     4     4  17.7       17.7       0.05336   
   1   500   1U    0     4     4  17.7       17.7       0.08003   
   1   500   2     0     3     3  17.7       17.7       0.02001   
   1   501   1     0     1     1  17.8       17.8       0.03001   
   1   502   1     0     2     2  17.8       17.8       0.04502   
   1   503   1     0     3     3  17.9       17.9       0.06753   
   1   504   1U    0     4     4  17.9       17.9       0.1169    
   1   504   2     0     2     2  17.9       17.9       0.02922   
   1   505   1     0     2     2  18.0       18.0       0.04383   
   1   506   1     0     3     3  18.0       18.0       0.04383   
   1   507   1U    0     4     4  18.0       18.0       0.09862   
   1   507   2     0     1     1  18.0       18.0       0.02465   
   1   508   1     0     2     2  18.1       18.1       0.03698   
   1   509   1     0     3     3  18.1       18.1       0.05547   
   1   510   1U    0     4     4  18.1       18.1       0.08321   
   1   510   2     0     2     2  18.1       18.1       0.02080   
   1   511   1     0     2     2  18.2       18.2       0.03120   
   1   512   1     0     3     3  18.2       18.2       0.04681   
   1   513   1     0     4     4  18.3       18.3       0.07021   
   1   514   1U    0     4     4  18.3       18.3       0.1053    
   1   514   2     0     3     3  18.3       18.3       0.02633   
   1   515   1     0     2     2  18.4       18.4       0.03949   
   1   516   1     0     3     3  18.4       18.4       0.05924   
   1   517   1U    3     5     8  18.4       18.4       0.08886   
   1   517   2     0     2     2  18.4       18.4       0.02221   
   1   518   1U    2     4     6  18.4       18.4       0.03332   
   1   518   2     0     1     1  18.4       18.4       0.008330  
   1   519   1     2     5     7  18.5       18.5       0.01250   
   1   520   1U    0     4     4  18.5       18.5       0.01250   
   1   520   2     0     3     3  18.5       18.5       0.003124  
   1   521   1     0     2     2  18.5       18.5       0.003124  
   1   522   1     0     2     2  18.5       18.5       0.004686  
   1   523   1     0     3     3  18.5       18.5       0.007029  
   1   524   1     0     3     3  18.5       18.5       0.01054   
   1   525   1     0     3     3  18.5       18.5       0.01581   
   1   526   1     0     6     6  18.5       18.5       0.02372   
   1   527   1     0     2     2  18.5       18.5       0.02372   
   1   528   1     0     2     2  18.6       18.6       0.02372   
   1   529   1     0     2     2  18.6       18.6       0.03558   
   1   530   1     0     2     2  18.7       18.7       0.05337   
   1   531   1U    0     4     4  18.7       18.7       0.08006   
   1   531   2     0     2     2  18.7       18.7       0.02002   
   1   532   1     0     2     2  18.7       18.7       0.03002   
   1   533   1     0     2     2  18.8       18.8       0.04503   
   1   534   1     0     5     5  18.8       18.8       0.06755   
   1   535   1     0     5     5  18.9       18.9       0.06755   
   1   536   1     0     5     5  19.0       19.0       0.06755   
   1   537   1     0     2     2  19.0       19.0       0.04360   
   1   538   1     0     5     5  19.1       19.1       0.06755   
   1   539   1U    0     7     7  19.1       19.1       0.06755   
   1   539   2     0     2     2  19.1       19.1       0.01689   
   1   540   1     0     1     1  19.1       19.1       0.01689   
   1   541   1     0     2     2  19.1       19.1       0.02533   
   1   542   1     0     2     2  19.2       19.2       0.03800   
   1   543   1     0     3     3  19.2       19.2       0.05700   
   1   544   1U    0     4     4  19.2       19.2       0.08550   
   1   544   2     0     2     2  19.2       19.2       0.02137   
   1   545   1     0     2     2  19.3       19.3       0.03206   
   1   546   1     0     2     2  19.3       19.3       0.04809   
   1   547   1     0     9     9  19.4       19.4       0.07214   
   1   548   1U    0     4     4  19.4       19.4       0.07214   
   1   548   2     0     2     2  19.4       19.4       0.01803   
   1   549   1     0     2     2  19.4       19.4       0.01803   
   1   550   1     0     2     2  19.5       19.5       0.02705   
   1   551   1     0     2     2  19.5       19.5       0.04058   
   1   552   1     0     5     5  19.6       19.6       0.06087   
   1   553   1     0     5     5  19.6       19.6       0.06087   
   1   554   1     0     5     5  19.7       19.7       0.06087   
   1   555   1     0     5     5  19.7       19.7       0.06087   
   1   556   1     0     5     5  19.8       19.8       0.06087   
   1   557   1     0     5     5  19.9       19.9       0.06087   
   1   558   1     0     5     5  19.9       19.9       0.06087   
   1   559   1U    0     4     4  19.9       19.9       0.07492   
   1   559   2     0     2     2  19.9       19.9       0.01873   
   1   560   1     0     2     2  20.0       20.0       0.01873   
   1   561   1     0     2     2  20.0       20.0       0.02810   
   1   562   1     0     1     1  20.0       20.0       0.009366  
   1   563   1     0     2     2  20.1       20.1       0.06322   
   1   564   1U    0     4     4  20.1       20.1       0.09483   
   1   564   2     0     2     2  20.1       20.1       0.02371   
   1   565   1     0     2     2  20.1       20.1       0.03556   
   1   566   1     0     5     5  20.2       20.2       0.05334   
   1   567   1     0     5     5  20.2       20.2       0.05334   
   1   568   1     0     5     5  20.3       20.3       0.05334   
   1   569   1     0     5     5  20.3       20.3       0.05334   
   1   570   1     0     5     5  20.4       20.4       0.05334   
   1   571   1     0     5     5  20.4       20.4       0.05334   
   1   572   1     0     5     5  20.5       20.5       0.05334   
   1   573   1     0     5     5  20.5       20.5       0.05334   
   1   574   1     0     5     5  20.6       20.6       0.05334   
   1   575   1     0     5     5  20.7       20.7       0.05334   
   1   576   1     0     5     5  20.7       20.7       0.05334   
   1   577   1     0     5     5  20.8       20.8       0.05334   
   1   578   1     0     5     5  20.8       20.8       0.05334   
   1   579   1     0     5     5  20.9       20.9       0.05334   
   1   580   1     0     5     5  20.9       20.9       0.05334   
   1   581   1     0     5     5  21.0       21.0       0.05334   
   1   582   1     0     2     2  21.0       21.0       0.02408   
   1   583   1     0     5     5  21.1       21.1       0.05334   
   1   584   1     0     5     5  21.1       21.1       0.05334   
   1   585   1     0     5     5  21.2       21.2       0.05334   
   1   586   1     0     6     6  21.2       21.2       0.05334   
   1   587   1     0     5     5  21.3       21.3       0.05334   
   1   588   1     0     5     5  21.3       21.3       0.05334   
   1   589   1     0     5     5  21.4       21.4       0.05334   
   1   590   1     0     5     5  21.4       21.4       0.05334   
   1   591   1     0     5     5  21.5       21.5       0.05334   
   1   592   1     0     5     5  21.5       21.5       0.05334   
   1   593   1     0     5     5  21.6       21.6       0.05334   
   1   594   1     0     5     5  21.6       21.6       0.05334   
   1   595   1     0     5     5  21.7       21.7       0.05334   
   1   596   1     0     5     5  21.7       21.7       0.05334   
   1   597   1     0     5     5  21.8       21.8       0.05334   
   1   598   1     0     5     5  21.9       21.9       0.05334   
   1   599   1     0     5     5  21.9       21.9       0.05334   
   1   600   1     0     5     5  22.0       22.0       0.05334   
   1   601   1     0     3     3  22.0       22.0       0.03988   
   1   602   1     0     5     5  22.1       22.1       0.05334   
   1   603   1     0     5     5  22.1       22.1       0.05334   
   1   604   1     0     5     5  22.2       22.2       0.05334   
   1   605   1     0     5     5  22.2       22.2       0.05334   
   1   606   1     0     5     5  22.3       22.3       0.05334   
   1   607   1     0     5     5  22.3       22.3       0.05334   
   1   608   1     0     5     5  22.4       22.4       0.05334   
   1   609   1     0     5     5  22.4       22.4       0.05334   
   1   610   1     0     5     5  22.5       22.5       0.05334   
   1   611   1     0     5     5  22.5       22.5       0.05334   
   1   612   1     0     5     5  22.6       22.6       0.05334   
   1   613   1     0     5     5  22.6       22.6       0.05334   
   1   614   1     0     5     5  22.7       22.7       0.05334   
   1   615   1     0     6     6  22.7       22.7       0.05334   
   1   616   1     0     5     5  22.8       22.8       0.05334   
   1   617   1     0     5     5  22.9       22.9       0.05334   
   1   618   1     0     5     5  22.9       22.9       0.05334   
   1   619   1     0     5     5  23.0       23.0       0.05334   
   1   620   1     0     2     2  23.0       23.0       0.03988   
   1   621   1     0     5     5  23.1       23.1       0.05334   
   1   622   1     0     5     5  23.1       23.1       0.05334   
   1   623   1     0     5     5  23.2       23.2       0.05334   
   1   624   1     0     2     2  23.2       23.2       0.05334   
   1   625   1     0     2     2  23.3       23.3       0.05334   
   1   626   1U    0     5     5  23.3       23.3       0.08001   
   1   626   2     0     2     2  23.3       23.3       0.02000   
   1   627   1     0     2     2  23.3       23.3       0.03000   
   1   628   1     0     2     2  23.4       23.4       0.04501   
   1   629   1     0     5     5  23.4       23.4       0.06751   
   1   630   1     0     5     5  23.5       23.5       0.06751   
   1   631   1     0     6     6  23.6       23.6       0.06751   
   1   632   1     0     6     6  23.6       23.6       0.06751   
   1   633   1     0     6     6  23.7       23.7       0.06751   
   1   634   1     0     6     6  23.8       23.8       0.06751   
   1   635   1     0     2     2  23.8       23.8       0.06751   
   1   636   1     0     3     3  23.9       23.9       0.06751   
   1   637   1U    0     4     4  23.9       23.9       0.09822   
   1   637   2     0     2     2  23.9       23.9       0.02456   
   1   638   1     0     2     2  24.0       24.0       0.03683   
   1   639   1     0     2     2  24.0       24.0       0.03683   
   1   640   1     0     2     2  24.1       24.1       0.05525   
   1   641   1U    0     4     4  24.1       24.1       0.08288   
   1   641   2     0     2     2  24.1       24.1       0.02072   
   1   642   1     0     2     2  24.1       24.1       0.03108   
   1   643   1     0     2     2  24.2       24.2       0.04662   
   1   644   1     0     2     2  24.2       24.2       0.06993   
   1   645   1U    0     4     4  24.2       24.2       0.1049    
   1   645   2     0     2     2  24.2       24.2       0.02622   
   1   646   1     0     2     2  24.3       24.3       0.03933   
   1   647   1     0     2     2  24.3       24.3       0.05900   
   1   648   1U    0     4     4  24.3       24.3       0.08850   
   1   648   2     0     2     2  24.4       24.4       0.02213   
   1   649   1     0     2     2  24.4       24.4       0.03319   
   1   650   1     0     3     3  24.5       24.5       0.04978   
   1   651   1     0     3     3  24.5       24.5       0.07467   
   1   652   1U    0     4     4  24.5       24.5       0.1120    
   1   652   2     0     2     2  24.6       24.6       0.02800   
   1   653   1     0     3     3  24.6       24.6       0.04200   
   1   654   1     0     2     2  24.7       24.7       0.06301   
   1   655   1U    0     4     4  24.7       24.7       0.09451   
   1   655   2     0     2     2  24.7       24.7       0.02363   
   1   656   1     0     2     2  24.7       24.7       0.03544   
   1   657   1     0     2     2  24.8       24.8       0.05316   
   1   658   1     0     3     3  24.9       24.9       0.07974   
   1   659   1U    0     4     4  24.9       24.9       0.1471    
   1   659   2     0     2     2  24.9       24.9       0.03677   
   1   660   1     0     3     3  24.9       24.9       0.05516   
   1   661   1     0     3     3  25.0       25.0       0.05516   
   1   662   1U    0     4     4  25.0       25.0       0.08274   
   1   662   2     0     2     2  25.0       25.0       0.02068   
   1   663   1     0     2     2  25.1       25.1       0.03103   
   1   664   1     0     3     3  25.1       25.1       0.04654   
   1   665   1     0     3     3  25.2       25.2       0.06981   
   1   666   1U    0     4     4  25.2       25.2       0.1047    
   1   666   2     0     2     2  25.2       25.2       0.02618   
   1   667   1     0     2     2  25.2       25.2       0.03927   
   1   668   1     0     3     3  25.3       25.3       0.05890   
   1   669   1U    0     4     4  25.3       25.3       0.08835   
   1   669   2     0     2     2  25.3       25.3       0.02209   
   1   670   1     0     2     2  25.3       25.3       0.03313   
   1   671   1     0     3     3  25.4       25.4       0.04970   
   1   672   1     0     3     3  25.5       25.5       0.07455   
   1   673   1U    0     4     4  25.5       25.5       0.1118    
   1   673   2     0     2     2  25.5       25.5       0.02796   
   1   674   1     0     3     3  25.5       25.5       0.04193   
   1   675   1     0     3     3  25.6       25.6       0.06290   
   1   676   1U    0     4     4  25.6       25.6       0.09435   
   1   676   2     0     2     2  25.6       25.6       0.02359   
   1   677   1     0     3     3  25.7       25.7       0.03538   
   1   678   1     0     3     3  25.7       25.7       0.05307   
   1   679   1     0     3     3  25.8       25.8       0.07961   
   1   680   1U    0     4     4  25.8       25.8       0.1194    
   1   680   2     0     2     2  25.8       25.8       0.02985   
   1   681   1     0     3     3  25.9       25.9       0.04478   
   1   682   1     0     3     3  25.9       25.9       0.06717   
   1   683   1     0     4     4  26.0       26.0       0.06187   
   1   684   1U    0     4     4  26.0       26.0       0.1511    
   1   684   2     0     3     3  26.0       26.0       0.03778   
   1   685   1     0     3     3  26.1       26.1       0.05667   
   1   686   1U    0     4     4  26.1       26.1       0.08501   
   1   686   2     0     2     2  26.1       26.1       0.02125   
   1   687   1     0     3     3  26.1       26.1       0.03188   
   1   688   1     0     2     2  26.2       26.2       0.04782   
   1   689   1     0     4     4  26.3       26.3       0.07173   
   1   690   1U    0     4     4  26.3       26.3       0.1076    
   1   690   2     0     2     2  26.3       26.3       0.02690   
   1   691   1     0     2     2  26.3       26.3       0.04035   
   1   692   1     0     2     2  26.4       26.4       0.06052   
   1   693   1U    0     4     4  26.4       26.4       0.09078   
   1   693   2     0     2     2  26.4       26.4       0.02270   
   1   694   1     0     2     2  26.5       26.5       0.03404   
   1   695   1     0     3     3  26.5       26.5       0.05107   
   1   696   1     0     2     2  26.6       26.6       0.07660   
   1   697   1U    2     1     3  26.6       26.6       0.1149    
   1   697   2     0     2     2  26.6       26.6       0.02872   
   1   698   1U    2     1     3  26.6       26.6       0.04309   
   1   698   2U    4     3     7  26.6       26.6       0.01077   
   1   698   3     1     6     7  26.6       26.6       0.002693  
   1   699   1U    0     5     5  26.6       26.6       0.002693  
   1   699   2     0     4     4  26.6       26.6       0.0006732 
   1   700   1     0     2     2  26.6       26.6       0.0006732 
   1   701   1     0     2     2  26.6       26.6       0.001010  
   1   702   1     0     2     2  26.6       26.6       0.001515  
   1   703   1     0     2     2  26.6       26.6       0.002272  
   1   704   1     1     3     4  26.6       26.6       0.003408  
   1   705   1     0     5     5  26.6       26.6       0.005112  
   1   706   1     0     3     3  26.6       26.6       0.005112  
   1   707   1     0     1     1  26.6       26.6       0.005112  
   1   708   1     0     2     2  26.6       26.6       0.007668  
   1   709   1     0     2     2  26.7       26.7       0.01150   
   1   710   1     0     2     2  26.7       26.7       0.01725   
   1   711   1     0     2     2  26.7       26.7       0.02588   
   1   712   1     0     3     3  26.7       26.7       0.03882   
   1   713   1     0     3     3  26.8       26.8       0.05823   
   1   714   1U    0     4     4  26.8       26.8       0.08735   
   1   714   2     0     3     3  26.8       26.8       0.02184   
   1   715   1     0     3     3  26.8       26.8       0.03276   
   1   716   1     0     3     3  26.9       26.9       0.04913   
   1   717   1     0     5     5  27.0       27.0       0.07370   
   1   718   1     0     3     3  27.0       27.0       0.02760   
   1   719   1     0     5     5  27.1       27.1       0.07370   
   1   720   1U    0     5     5  27.1       27.1       0.07370   
   1   720   2     0     3     3  27.1       27.1       0.01842   
   1   721   1     0     3     3  27.1       27.1       0.01842   
   1   722   1     0     2     2  27.1       27.1       0.02764   
   1   723   1     0     2     2  27.2       27.2       0.04146   
   1   724   1     0     3     3  27.2       27.2       0.06218   
   1   725   1U    0     4     4  27.2       27.2       0.09328   
   1   725   2     0     3     3  27.3       27.3       0.02332   
   1   726   1     0     3     3  27.3       27.3       0.03498   
   1   727   1     0     3     3  27.4       27.4       0.05247   
   1   728   1U    0     5     5  27.4       27.4       0.07870   
   1   728   2     0     3     3  27.4       27.4       0.01968   
   1   729   1     0     3     3  27.4       27.4       0.02951   
   1   730   1     0     3     3  27.4       27.4       0.04427   
   1   731   1     0     5     5  27.5       27.5       0.06640   
   1   732   1     0     5     5  27.6       27.6       0.06640   
   1   733   1     0     5     5  27.6       27.6       0.06640   
   1   734   1     0     5     5  27.7       27.7       0.06640   
   1   735   1     0     5     5  27.8       27.8       0.06640   
   1   736   1     0     5     5  27.8       27.8       0.06640   
   1   737   1U    0     5     5  27.8       27.8       0.06640   
   1   737   2     0     3     3  27.9       27.9       0.01660   
   1   738   1     0     3     3  27.9       27.9       0.01660   
   1   739   1     0     3     3  27.9       27.9       0.02490   
   1   740   1     0     4     4  27.9       27.9       0.03735   
   1   741   1     0     6     6  28.0       28.0       0.06006   
   1   742   1     0     6     6  28.1       28.1       0.06006   
   1   743   1     0     6     6  28.1       28.1       0.06006   
   1   744   1     0     5     5  28.2       28.2       0.06006   
   1   745   1     0     5     5  28.2       28.2       0.06006   
   1   746   1     0     6     6  28.3       28.3       0.06006   
   1   747   1     0     5     5  28.4       28.4       0.06006   
   1   748   1     0     5     5  28.4       28.4       0.06006   
   1   749   1     0     5     5  28.5       28.5       0.06006   
   1   750   1     0     6     6  28.5       28.5       0.06006   
   1   751   1     0     6     6  28.6       28.6       0.06006   
   1   752   1     0     7     7  28.7       28.7       0.06006   
   1   753   1     0     6     6  28.7       28.7       0.06006   
   1   754   1     0     6     6  28.8       28.8       0.06006   
   1   755   1     0     6     6  28.8       28.8       0.06006   
   1   756   1     0     4     4  28.9       28.9       0.06006   
   1   757   1     0     3     3  29.0       29.0       0.06006   
   1   758   1     0     3     3  29.0       29.0       0.03899   
   1   759   1U    0     4     4  29.0       29.0       0.1351    
   1   759   2     0     2     2  29.0       29.0       0.03379   
   1   760   1     0     3     3  29.1       29.1       0.05068   
   1   761   1U    0     5     5  29.1       29.1       0.07602   
   1   761   2     0     2     2  29.1       29.1       0.01900   
   1   762   1     0     2     2  29.1       29.1       0.02851   
   1   763   1     0     3     3  29.2       29.2       0.04276   
   1   764   1     0     3     3  29.2       29.2       0.06414   
   1   765   1U    0     4     4  29.2       29.2       0.09621   
   1   765   2     0     2     2  29.3       29.3       0.02405   
   1   766   1     0     3     3  29.3       29.3       0.03608   
   1   767   1     0     3     3  29.4       29.4       0.05412   
   1   768   1U    0     4     4  29.4       29.4       0.08118   
   1   768   2     0     2     2  29.4       29.4       0.02029   
   1   769   1     0     3     3  29.4       29.4       0.03044   
   1   770   1     0     3     3  29.4       29.4       0.04566   
   1   771   1     0     4     4  29.5       29.5       0.06849   
   1   772   1U    0     5     5  29.5       29.5       0.1027    
   1   772   2     0     2     2  29.5       29.5       0.02568   
   1   773   1     0     2     2  29.6       29.6       0.03853   
   1   774   1     0     3     3  29.6       29.6       0.05779   
   1   775   1U    0     4     4  29.6       29.6       0.08669   
   1   775   2     0     2     2  29.7       29.7       0.02167   
   1   776   1     0     3     3  29.7       29.7       0.03251   
   1   777   1     0     3     3  29.7       29.7       0.04876   
   1   778   1     0     4     4  29.8       29.8       0.07314   
   1   779   1U    0     4     4  29.8       29.8       0.1097    
   1   779   2     0     2     2  29.8       29.8       0.02743   
   1   780   1     0     3     3  29.9       29.9       0.04114   
   1   781   1     0     3     3  29.9       29.9       0.06171   
   1   782   1     0     3     3  30.0       30.0       0.05362   
   1   783   1U    0     4     4  30.0       30.0       0.1389    
   1   783   2     0     2     2  30.0       30.0       0.03471   
   1   784   1     0     3     3  30.1       30.1       0.05207   
   1   785   1     0     4     4  30.2       30.2       0.07811   
   1   786   1U    0     4     4  30.2       30.2       0.1172    
   1   786   2     0     2     2  30.2       30.2       0.02929   
   1   787   1     0     3     3  30.2       30.2       0.04393   
   1   788   1     0     4     4  30.3       30.3       0.06590   
   1   789   1U    0     4     4  30.3       30.3       0.09885   
   1   789   2     0     2     2  30.3       30.3       0.02471   
   1   790   1     0     3     3  30.4       30.4       0.03707   
   1   791   1     0     3     3  30.4       30.4       0.05560   
   1   792   1U    0     4     4  30.4       30.4       0.08341   
   1   792   2     0     2     2  30.4       30.4       0.02085   
   1   793   1     0     2     2  30.5       30.5       0.03128   
   1   794   1     0     2     2  30.5       30.5       0.04692   
   1   795   1     0     3     3  30.6       30.6       0.07037   
   1   796   1U    0     4     4  30.6       30.6       0.1056    
   1   796   2     0     2     2  30.6       30.6       0.02639   
   1   797   1     0     3     3  30.7       30.7       0.03959   
   1   798   1     0     4     4  30.7       30.7       0.05938   
   1   799   1U    0     4     4  30.7       30.7       0.08907   
   1   799   2     0     2     2  30.7       30.7       0.02227   
   1   800   1     0     2     2  30.8       30.8       0.03340   
   1   801   1     0     3     3  30.8       30.8       0.05010   
   1   802   1     0     3     3  30.9       30.9       0.07515   
   1   803   1U    0     4     4  30.9       30.9       0.1029    
   1   803   2     0     2     2  30.9       30.9       0.02573   
   1   804   1     0     2     2  31.0       31.0       0.03859   
   1   805   1     0     2     2  31.0       31.0       0.03859   
   1   806   1     0     3     3  31.1       31.1       0.05788   
   1   807   1U    0     4     4  31.1       31.1       0.08683   
   1   807   2     0     2     2  31.1       31.1       0.02171   
   1   808   1     0     2     2  31.1       31.1       0.03256   
   1   809   1     0     2     2  31.2       31.2       0.04884   
   1   810   1     0     3     3  31.2       31.2       0.07326   
   1   811   1U    0     4     4  31.2       31.2       0.1099    
   1   811   2     0     3     3  31.3       31.3       0.02747   
   1   812   1     0     3     3  31.3       31.3       0.04121   
   1   813   1     0     3     3  31.4       31.4       0.06181   
   1   814   1U    0     4     4  31.4       31.4       0.09272   
   1   814   2     0     2     2  31.4       31.4       0.02318   
   1   815   1     0     2     2  31.4       31.4       0.03477   
   1   816   1     0     3     3  31.5       31.5       0.05215   
   1   817   1     0     4     4  31.6       31.6       0.07823   
   1   818   1U    0     4     4  31.6       31.6       0.1173    
   1   818   2     0     2     2  31.6       31.6       0.02934   
   1   819   1     0     2     2  31.6       31.6       0.04401   
   1   820   1     0     3     3  31.7       31.7       0.06601   
   1   821   1U    0     4     4  31.7       31.7       0.09901   
   1   821   2     0     2     2  31.7       31.7       0.02475   
   1   822   1     0     2     2  31.8       31.8       0.03713   
   1   823   1     0     3     3  31.8       31.8       0.05569   
   1   824   1U    0     4     4  31.8       31.8       0.08354   
   1   824   2     0     2     2  31.8       31.8       0.02089   
   1   825   1     0     3     3  31.9       31.9       0.03133   
   1   826   1     0     2     2  31.9       31.9       0.04699   
   1   827   1     0     3     3  32.0       32.0       0.07049   
   1   828   1     0     2     2  32.0       32.0       0.02030   
   1   829   1U    0     4     4  32.0       32.0       0.1586    
   1   829   2     0     2     2  32.0       32.0       0.03965   
   1   830   1     0     3     3  32.1       32.1       0.05947   
   1   831   1U    0     4     4  32.1       32.1       0.08921   
   1   831   2     0     2     2  32.1       32.1       0.02230   
   1   832   1     0     2     2  32.2       32.2       0.03345   
   1   833   1     0     2     2  32.2       32.2       0.05018   
   1   834   1     0     2     2  32.3       32.3       0.07527   
   1   835   1U    0     4     4  32.3       32.3       0.1129    
   1   835   2     0     2     2  32.3       32.3       0.02823   
   1   836   1     0     2     2  32.4       32.4       0.04234   
   1   837   1     0     3     3  32.4       32.4       0.06351   
   1   838   1U    0     4     4  32.4       32.4       0.09527   
   1   838   2     0     2     2  32.4       32.4       0.02382   
   1   839   1     0     2     2  32.5       32.5       0.03572   
   1   840   1     0     2     2  32.5       32.5       0.05359   
   1   841   1     0     3     3  32.6       32.6       0.08038   
   1   842   1U    2     1     3  32.6       32.6       0.1206    
   1   842   2     0     2     2  32.6       32.6       0.03014   
   1   843   1U    4     5     9  32.6       32.6       0.04521   
   1   843   2     0     1     1  32.6       32.6       0.01130   
   1   844   1     0     2     2  32.7       32.7       0.01696   
   1   845   1U    4     1     5  32.7       32.7       0.02543   
   1   845   2U    4     2     6  32.7       32.7       0.006358  
   1   845   3     0     3     3  32.7       32.7       0.001590  
   1   846   1     0     1     1  32.7       32.7       0.002384  
   1   847   1U    6     0     6  32.7       32.7       0.003577  
   1   847   2     0     1     1  32.7       32.7       0.0008941 
   1   848   1     4     7    11  32.7       32.7       0.001341  
   1   849   1     0     3     3  32.7       32.7       0.001341  
   1   850   1     0     2     2  32.7       32.7       0.001341  
   1   851   1     0     2     2  32.7       32.7       0.002012  
   1   852   1     1     4     5  32.7       32.7       0.003018  
   1   853   1     0     2     2  32.7       32.7       0.004527  
   1   854   1     0     5     5  32.7       32.7       0.006790  
   1   855   1     0     3     3  32.7       32.7       0.006790  
   1   856   1     0     2     2  32.7       32.7       0.006790  
   1   857   1     0     3     3  32.7       32.7       0.01018   
   1   858   1     0     2     2  32.7       32.7       0.01528   
   1   859   1     0     3     3  32.8       32.8       0.02292   
   1   860   1     0     4     4  32.8       32.8       0.03437   
   1   861   1     0     4     4  32.8       32.8       0.05156   
   1   862   1U    0     4     4  32.8       32.8       0.07734   
   1   862   2     0     3     3  32.9       32.9       0.01934   
   1   863   1     0     3     3  32.9       32.9       0.02900   
   1   864   1     0     4     4  32.9       32.9       0.04350   
   1   865   1U    0     5     5  32.9       32.9       0.06871   
   1   865   2     0     2     2  32.9       32.9       0.01718   
   1   866   1     0     2     2  33.0       33.0       0.02576   
   1   867   1     0     3     3  33.0       33.0       0.02576   
   1   868   1     0     3     3  33.0       33.0       0.03865   
   1   869   1     0     4     4  33.1       33.1       0.05797   
   1   870   1U    0     5     5  33.1       33.1       0.08696   
   1   870   2     0     3     3  33.1       33.1       0.02174   
   1   871   1     0     3     3  33.2       33.2       0.03261   
   1   872   1     0     3     3  33.2       33.2       0.04891   
   1   873   1U    0     6     6  33.2       33.2       0.07337   
   1   873   2     0     2     2  33.2       33.2       0.01834   
   1   874   1     0     2     2  33.2       33.2       0.02751   
   1   875   1     0     3     3  33.3       33.3       0.04127   
   1   876   1     0     6     6  33.3       33.3       0.06190   
   1   877   1U    0     6     6  33.3       33.3       0.06190   
   1   877   2     0     2     2  33.4       33.4       0.01548   
   1   878   1     0     2     2  33.4       33.4       0.01548   
   1   879   1     0     2     2  33.4       33.4       0.02321   
   1   880   1     0     3     3  33.4       33.4       0.03482   
   1   881   1     0     3     3  33.5       33.5       0.05223   
   1   882   1U    0     5     5  33.5       33.5       0.07835   
   1   882   2     0     2     2  33.5       33.5       0.01959   
   1   883   1     0     2     2  33.5       33.5       0.02938   
   1   884   1     0     3     3  33.6       33.6       0.04407   
   1   885   1     0     3     3  33.6       33.6       0.06611   
   1   886   1U    0     6     6  33.6       33.6       0.09916   
   1   886   2     0     2     2  33.7       33.7       0.02479   
   1   887   1     0     2     2  33.7       33.7       0.03718   
   1   888   1     0     3     3  33.8       33.8       0.05578   
   1   889   1U    0     5     5  33.8       33.8       0.08367   
   1   889   2     0     2     2  33.8       33.8       0.02092   
   1   890   1     0     2     2  33.8       33.8       0.03137   
   1   891   1     0     3     3  33.9       33.9       0.04706   
   1   892   1U    0     4     4  33.9       33.9       0.07059   
   1   892   2     0     2     2  33.9       33.9       0.01765   
   1   893   1     0     3     3  33.9       33.9       0.02647   
   1   894   1     0     3     3  34.0       34.0       0.03971   
   1   895   1     0     3     3  34.0       34.0       0.04979   
   1   896   1U    0     4     4  34.0       34.0       0.07469   
   1   896   2     0     2     2  34.0       34.0       0.01867   
   1   897   1     0     2     2  34.0       34.0       0.02801   
   1   898   1     0     3     3  34.1       34.1       0.04201   
   1   899   1     0     3     3  34.2       34.2       0.06302   
   1   900   1U    0     4     4  34.2       34.2       0.09453   
   1   900   2     0     2     2  34.2       34.2       0.02363   
   1   901   1     0     3     3  34.2       34.2       0.03545   
   1   902   1     0     3     3  34.3       34.3       0.05317   
   1   903   1U    0     4     4  34.3       34.3       0.07976   
   1   903   2     0     2     2  34.3       34.3       0.01994   
   1   904   1     0     2     2  34.3       34.3       0.02991   
   1   905   1     0     3     3  34.4       34.4       0.04486   
   1   906   1     0     3     3  34.4       34.4       0.06729   
   1   907   1U    0     4     4  34.4       34.4       0.1009    
   1   907   2     0     2     2  34.5       34.5       0.02524   
   1   908   1     0     2     2  34.5       34.5       0.03785   
   1   909   1     0     3     3  34.5       34.5       0.05678   
   1   910   1U    0     4     4  34.5       34.5       0.08517   
   1   910   2     0     2     2  34.6       34.6       0.02129   
   1   911   1     0     2     2  34.6       34.6       0.03194   
   1   912   1     0     2     2  34.6       34.6       0.04791   
   1   913   1     0     3     3  34.7       34.7       0.07186   
   1   914   1U    0     4     4  34.7       34.7       0.1078    
   1   914   2     0     3     3  34.7       34.7       0.02695   
   1   915   1     0     2     2  34.8       34.8       0.04042   
   1   916   1     0     3     3  34.8       34.8       0.06063   
   1   917   1U    0     4     4  34.8       34.8       0.09095   
   1   917   2     0     3     3  34.9       34.9       0.02274   
   1   918   1     0     2     2  34.9       34.9       0.03411   
   1   919   1     0     3     3  35.0       35.0       0.05116   
   1   920   1     0     3     3  35.0       35.0       0.04516   
   1   921   1U    0     4     4  35.0       35.0       0.1151    
   1   921   2     0     2     2  35.0       35.0       0.02878   
   1   922   1     0     3     3  35.1       35.1       0.04317   
   1   923   1     0     3     3  35.1       35.1       0.06475   
   1   924   1U    0     4     4  35.1       35.1       0.09712   
   1   924   2     0     2     2  35.2       35.2       0.02428   
   1   925   1     0     2     2  35.2       35.2       0.03642   
   1   926   1     0     3     3  35.3       35.3       0.05463   
   1   927   1     0     4     4  35.3       35.3       0.08195   
   1   928   1U    0     4     4  35.3       35.3       0.1229    
   1   928   2     0     2     2  35.4       35.4       0.03073   
   1   929   1     0     2     2  35.4       35.4       0.04610   
   1   930   1     0     4     4  35.5       35.5       0.06914   
   1   931   1U    0     4     4  35.5       35.5       0.1037    
   1   931   2     0     2     2  35.5       35.5       0.02593   
   1   932   1     0     3     3  35.5       35.5       0.03889   
   1   933   1     0     2     2  35.6       35.6       0.05834   
   1   934   1U    0     4     4  35.6       35.6       0.08751   
   1   934   2     0     2     2  35.6       35.6       0.02188   
   1   935   1     0     2     2  35.7       35.7       0.03282   
   1   936   1     0     2     2  35.7       35.7       0.04922   
   1   937   1     0     3     3  35.8       35.8       0.07384   
   1   938   1U    0     7     7  35.8       35.8       0.1108    
   1   938   2     0     3     3  35.8       35.8       0.02769   
   1   939   1     0     2     2  35.9       35.9       0.04153   
   1   940   1     0     4     4  35.9       35.9       0.06230   
   1   941   1U    0     4     4  35.9       35.9       0.08762   
   1   941   2     0     2     2  35.9       35.9       0.02190   
   1   942   1     0     2     2  36.0       36.0       0.03286   
   1   943   1     0     2     2  36.0       36.0       0.03286   
   1   944   1     0     2     2  36.0       36.0       0.04929   
   1   945   1     0     3     3  36.1       36.1       0.07393   
   1   946   1U    0     4     4  36.1       36.1       0.1109    
   1   946   2     0     2     2  36.2       36.2       0.02772   
   1   947   1     0     2     2  36.2       36.2       0.04158   
   1   948   1     0     2     2  36.3       36.3       0.06238   
   1   949   1U    0     4     4  36.3       36.3       0.09357   
   1   949   2     0     2     2  36.3       36.3       0.02339   
   1   950   1     0     2     2  36.3       36.3       0.03509   
   1   951   1     0     2     2  36.4       36.4       0.05263   
   1   952   1     0     3     3  36.4       36.4       0.07895   
   1   953   1U    0     4     4  36.4       36.4       0.1184    
[...]
   1  2182   2     0     2     2  87.3       87.3       0.04611   
   1  2183   1     0     2     2  87.4       87.4       0.06917   
   1  2184   1U    0     5     5  87.4       87.4       0.1038    
   1  2184   2     0     4     4  87.4       87.4       0.02594   
   1  2185   1     0     3     3  87.4       87.4       0.03891   
   1  2186   1     0     3     3  87.5       87.5       0.05836   
   1  2187   1     0     3     3  87.6       87.6       0.08754   
   1  2188   1     0     4     4  87.7       87.7       0.1313    
   1  2189   1U    2     1     3  87.7       87.7       0.1970    
   1  2189   2     0     3     3  87.8       87.8       0.04924   
   1  2190   1     0     7     7  87.8       87.8       0.07386   
   1  2191   1U    2     1     3  87.8       87.8       0.07386   
   1  2191   2     0     2     2  87.9       87.9       0.01847   
   1  2192   1     0     2     2  87.9       87.9       0.01847   
   1  2193   1U    2     1     3  87.9       87.9       0.02770   
   1  2193   2     2     6     8  87.9       87.9       0.006925  
   1  2194   1     0     3     3  87.9       87.9       0.006925  
   1  2195   1     0     2     2  87.9       87.9       0.006925  
   1  2196   1     0     3     3  87.9       87.9       0.01039   
   1  2197   1     0     2     2  87.9       87.9       0.01558   
   1  2198   1     0     2     2  87.9       87.9       0.02337   
   1  2199   1     0     3     3  88.0       88.0       0.03506   
   1  2200   1     0     2     2  88.0       88.0       0.01785   
   1  2201   1     0     6     6  88.1       88.1       0.07888   
   1  2202   1     0     2     2  88.2       88.2       0.07888   
   1  2203   1     0     2     2  88.2       88.2       0.07888   
   1  2204   1     0     2     2  88.4       88.4       0.1183    
   1  2205   1U    0     5     5  88.4       88.4       0.1775    
   1  2205   2     0     2     2  88.4       88.4       0.04437   
   1  2206   1     0     2     2  88.5       88.5       0.06655   
   1  2207   1     0     2     2  88.6       88.6       0.09983   
   1  2208   1U    0     6     6  88.6       88.6       0.1497    
   1  2208   2     0     2     2  88.6       88.6       0.03744   
   1  2209   1     0     2     2  88.7       88.7       0.05615   
   1  2210   1     0     2     2  88.7       88.7       0.08423   
   1  2211   1     0     2     2  88.9       88.9       0.1263    
   1  2212   1     0     3     3  89.0       89.0       0.1301    
   1  2213   1U    0     5     5  89.0       89.0       0.1952    
   1  2213   2     0     2     2  89.0       89.0       0.04880   
   1  2214   1     0     2     2  89.1       89.1       0.07320   
   1  2215   1     0     2     2  89.2       89.2       0.1098    
   1  2216   1U    0     5     5  89.2       89.2       0.1647    
   1  2216   2     0     1     1  89.3       89.3       0.04118   
   1  2217   1     0     1     1  89.3       89.3       0.06177   
   1  2218   1     0     5     5  89.4       89.4       0.09265   
   1  2219   1     0     4     4  89.5       89.5       0.09265   
   1  2220   1     0     3     3  89.6       89.6       0.09265   
   1  2221   1     0     4     4  89.8       89.8       0.1390    
   1  2222   1U    2     1     3  89.8       89.8       0.2483    
   1  2222   2     0     3     3  89.8       89.8       0.06208   
   1  2223   1     0     3     3  89.9       89.9       0.09312   
   1  2224   1U    2     1     3  89.9       89.9       0.09312   
   1  2224   2     0     3     3  89.9       89.9       0.02328   
   1  2225   1U    1     5     6  89.9       89.9       0.03492   
   1  2225   2     0     2     2  89.9       89.9       0.008730  
   1  2226   1     0     2     2  90.0       90.0       0.01310   
   1  2227   1U    4     0     4  90.0       90.0       0.01964   
   1  2227   2     0     1     1  90.0       90.0       0.004911  
   1  2228   1     1     3     4  90.0       90.0       0.007366  
   1  2229   1U    3     7    10  90.0       90.0       0.01105   
   1  2229   2     3     3     6  90.0       90.0       0.002762  
   1  2230   1     0     6     6  90.0       90.0       0.004143  
   1  2231   1     0     2     2  90.0       90.0       0.004143  
   1  2232   1     0     2     2  90.0       90.0       0.004143  
   1  2233   1     0     3     3  90.0       90.0       0.006215  
   1  2234   1     0     2     2  90.0       90.0       0.009323  
   1  2235   1     0     2     2  90.0       90.0       0.005009  
   1  2236   1     0     3     3  90.0       90.0       0.02098   
   1  2237   1     0     3     3  90.1       90.1       0.03146   
   1  2238   1     0     7     7  90.1       90.1       0.04720   
   1  2239   1     0     5     5  90.1       90.1       0.04720   
   1  2240   1     0     2     2  90.2       90.2       0.04720   
   1  2241   1     0     2     2  90.2       90.2       0.04720   
   1  2242   1     0     2     2  90.3       90.3       0.07079   
   1  2243   1     0     2     2  90.4       90.4       0.1062    
   1  2244   1U    0     5     5  90.4       90.4       0.1593    
   1  2244   2     0     2     2  90.5       90.5       0.03982   
   1  2245   1     0     2     2  90.5       90.5       0.05973   
   1  2246   1     0     3     3  90.6       90.6       0.08960   
   1  2247   1     0     3     3  90.7       90.7       0.1344    
   1  2248   1U    0     6     6  90.7       90.7       0.2016    
   1  2248   2     0     2     2  90.8       90.8       0.05040   
   1  2249   1     0     2     2  90.9       90.9       0.07560   
   1  2250   1     0     2     2  91.0       91.0       0.1322    
   1  2251   1U    0     6     6  91.0       91.0       0.1984    
   1  2251   2     0     2     2  91.0       91.0       0.04959   
   1  2252   1     0     2     2  91.1       91.1       0.07438   
   1  2253   1     0     2     2  91.2       91.2       0.1116    
   1  2254   1U    0     6     6  91.2       91.2       0.1674    
   1  2254   2     0     2     2  91.3       91.3       0.04184   
   1  2255   1     0     2     2  91.3       91.3       0.06276   
   1  2256   1     0     6     6  91.4       91.4       0.09414   
   1  2257   1     0     3     3  91.5       91.5       0.09414   
   1  2258   1     0     3     3  91.6       91.6       0.09414   
   1  2259   1U    0     4     4  91.6       91.6       0.1412    
   1  2259   2     0     3     3  91.7       91.7       0.03530   
   1  2260   1     0     3     3  91.7       91.7       0.05295   
   1  2261   1     0     3     3  91.8       91.8       0.07943   
   1  2262   1     0     3     3  91.9       91.9       0.1191    
   1  2263   1     0     3     3  92.0       92.0       0.09060   
   1  2264   1U    1     1     2  92.0       92.0       0.2681    
   1  2264   2U    2     1     3  92.0       92.0       0.06702   
   1  2264   3     0     2     2  92.0       92.0       0.01676   
   1  2265   1U    4     1     5  92.0       92.0       0.02513   
   1  2265   2     0     1     1  92.0       92.0       0.006283  
   1  2266   1U    2     4     6  92.0       92.0       0.009425  
   1  2266   2     1     7     8  92.0       92.0       0.002356  
   1  2267   1     1     1     2  92.0       92.0       0.002356  
   1  2268   1     0     3     3  92.0       92.0       0.002356  
   1  2269   1     0     2     2  92.0       92.0       0.003534  
   1  2270   1     0     2     2  92.0       92.0       0.005301  
   1  2271   1     0     3     3  92.0       92.0       0.007952  
   1  2272   1     0     3     3  92.1       92.1       0.01193   
   1  2273   1U    0     4     4  92.1       92.1       0.01789   
   1  2273   2     0     1     1  92.1       92.1       0.004473  
   1  2274   1     0     2     2  92.1       92.1       0.006710  
   1  2275   1     0     2     2  92.1       92.1       0.01006   
   1  2276   1     0     2     2  92.1       92.1       0.01510   
   1  2277   1     0     3     3  92.1       92.1       0.02264   
   1  2278   1     0     5     5  92.2       92.2       0.03397   
   1  2279   1     0     2     2  92.2       92.2       0.03397   
   1  2280   1     0     2     2  92.2       92.2       0.03397   
   1  2281   1     0     2     2  92.3       92.3       0.05095   
   1  2282   1     0     2     2  92.3       92.3       0.07643   
   1  2283   1     0     2     2  92.5       92.5       0.1146    
   1  2284   1U    0     5     5  92.5       92.5       0.1720    
   1  2284   2     0     2     2  92.5       92.5       0.04299   
   1  2285   1     0     2     2  92.6       92.6       0.06448   
   1  2286   1     0     2     2  92.7       92.7       0.09673   
   1  2287   1U    0     6     6  92.7       92.7       0.1451    
   1  2287   2     0     1     1  92.7       92.7       0.03627   
   1  2288   1     0     2     2  92.8       92.8       0.05441   
   1  2289   1     0     2     2  92.8       92.8       0.08161   
   1  2290   1     0     2     2  93.0       93.0       0.1224    
   1  2291   1     0     2     2  93.0       93.0       0.03935   
   1  2292   1U    0     5     5  93.0       93.0       0.2754    
   1  2292   2     0     2     2  93.1       93.1       0.06886   
   1  2293   1     0     2     2  93.2       93.2       0.1033    
   1  2294   1U    0     5     5  93.2       93.2       0.1549    
   1  2294   2     0     1     1  93.2       93.2       0.03873   
   1  2295   1     0     3     3  93.3       93.3       0.05810   
   1  2296   1     0     6     6  93.4       93.4       0.08715   
   1  2297   1     0     3     3  93.4       93.4       0.08715   
   1  2298   1     0     3     3  93.5       93.5       0.08715   
   1  2299   1     0     3     3  93.7       93.7       0.1307    
   1  2300   1U    0     4     4  93.7       93.7       0.1961    
   1  2300   2     0     3     3  93.7       93.7       0.04902   
   1  2301   1     0     3     3  93.8       93.8       0.07353   
   1  2302   1     0     4     4  93.9       93.9       0.1103    
   1  2303   1     0     3     3  94.0       94.0       0.1060    
   1  2304   1U    2     1     3  94.0       94.0       0.2482    
   1  2304   2     0     3     3  94.1       94.1       0.06205   
   1  2305   1U    2     1     3  94.1       94.1       0.09307   
   1  2305   2U    4     1     5  94.1       94.1       0.02327   
   1  2305   3     0     4     4  94.1       94.1       0.005817  
   1  2306   1U    2     4     6  94.1       94.1       0.008725  
   1  2306   2     1     6     7  94.1       94.1       0.002181  
   1  2307   1     1     3     4  94.1       94.1       0.002181  
   1  2308   1     0     3     3  94.1       94.1       0.002181  
   1  2309   1     0     2     2  94.1       94.1       0.003272  
   1  2310   1     0     2     2  94.1       94.1       0.004908  
   1  2311   1     0     2     2  94.1       94.1       0.007362  
   1  2312   1     0     3     3  94.1       94.1       0.01104   
   1  2313   1U    0     6     6  94.1       94.1       0.01656   
   1  2313   2     0     2     2  94.1       94.1       0.004141  
   1  2314   1     0     2     2  94.1       94.1       0.006212  
   1  2315   1     0     2     2  94.1       94.1       0.009317  
   1  2316   1     0     3     3  94.1       94.1       0.01398   
   1  2317   1     0     4     4  94.2       94.2       0.02096   
   1  2318   1     0     6     6  94.2       94.2       0.03145   
   1  2319   1     0     2     2  94.2       94.2       0.03145   
   1  2320   1     0     1     1  94.2       94.2       0.03145   
   1  2321   1     0     2     2  94.3       94.3       0.04717   
   1  2322   1     0     2     2  94.4       94.4       0.07075   
   1  2323   1     0     2     2  94.5       94.5       0.1061    
   1  2324   1U    0     5     5  94.5       94.5       0.1592    
   1  2324   2     0     2     2  94.5       94.5       0.03980   
   1  2325   1     0     2     2  94.6       94.6       0.05970   
   1  2326   1     0     2     2  94.7       94.7       0.08955   
   1  2327   1     0     5     5  94.8       94.8       0.1343    
   1  2328   1     0     7     7  94.9       94.9       0.1343    
   1  2329   1     0     2     2  95.0       95.0       0.06833   
   1  2330   1     0     3     3  95.1       95.1       0.1343    
   1  2331   1U    0     8     8  95.1       95.1       0.2015    
   1  2331   2     0     2     2  95.2       95.2       0.05037   
   1  2332   1     0     5     5  95.3       95.3       0.07556   
   1  2333   1     0     4     4  95.3       95.3       0.07556   
   1  2334   1     0     3     3  95.4       95.4       0.07556   
   1  2335   1     0     3     3  95.5       95.5       0.1133    
   1  2336   1U    0     4     4  95.5       95.5       0.1700    
   1  2336   2     0     3     3  95.6       95.6       0.04250   
   1  2337   1     0     2     2  95.6       95.6       0.06375   
   1  2338   1     0     3     3  95.7       95.7       0.09562   
   1  2339   1     0     4     4  95.9       95.9       0.1434    
   1  2340   1     0     4     4  96.0       96.0       0.1300    
   1  2341   1U    1     1     2  96.0       96.0       0.3227    
   1  2341   2U    2     4     6  96.0       96.0       0.08068   
   1  2341   3     0     3     3  96.0       96.0       0.02017   
   1  2342   1     0     3     3  96.1       96.1       0.03026   
   1  2343   1U    2     1     3  96.1       96.1       0.04538   
   1  2343   2     0     1     1  96.1       96.1       0.01135   
   1  2344   1U    2     4     6  96.1       96.1       0.01702   
   1  2344   2     0     1     1  96.1       96.1       0.004255  
   1  2345   1     0     2     2  96.1       96.1       0.006382  
   1  2346   1U    2     8    10  96.1       96.1       0.009573  
   1  2346   2U    1     9    10  96.1       96.1       0.002393  
   1  2346   3     1     6     7  96.1       96.1       0.001197  
   1  2347   1     0     3     3  96.1       96.1       0.001197  
   1  2348   1     1     2     3  96.1       96.1       0.001197  
   1  2349   1     0     2     2  96.1       96.1       0.001795  
   1  2350   1     0     2     2  96.1       96.1       0.002692  
   1  2351   1     0     2     2  96.1       96.1       0.004039  
   1  2352   1     0     2     2  96.1       96.1       0.006058  
   1  2353   1     0     2     2  96.1       96.1       0.009087  
   1  2354   1U    0     4     4  96.1       96.1       0.01363   
   1  2354   2     0     2     2  96.1       96.1       0.003408  
   1  2355   1     0     2     2  96.1       96.1       0.005111  
   1  2356   1     0     2     2  96.1       96.1       0.007667  
   1  2357   1     0     3     3  96.1       96.1       0.01150   
   1  2358   1U    0     4     4  96.1       96.1       0.01725   
   1  2358   2     0     2     2  96.1       96.1       0.004313  
   1  2359   1     0     2     2  96.1       96.1       0.006469  
   1  2360   1     0     2     2  96.1       96.1       0.009704  
   1  2361   1     0     4     4  96.2       96.2       0.01456   
   1  2362   1     0     4     4  96.2       96.2       0.02183   
   1  2363   1     0     3     3  96.2       96.2       0.03275   
   1  2364   1     0     2     2  96.3       96.3       0.04913   
   1  2365   1     0     2     2  96.3       96.3       0.07369   
   1  2366   1     0     2     2  96.5       96.5       0.1105    
   1  2367   1U    0     6     6  96.5       96.5       0.1658    
   1  2367   2     0     3     3  96.5       96.5       0.04145   
   1  2368   1     0     1     1  96.6       96.6       0.06217   
   1  2369   1     0     3     3  96.6       96.6       0.09326   
   1  2370   1U    0     5     5  96.6       96.6       0.1399    
   1  2370   2     0     2     2  96.7       96.7       0.03497   
   1  2371   1     0     1     1  96.7       96.7       0.05246   
   1  2372   1     0     2     2  96.8       96.8       0.07869   
   1  2373   1     0     3     3  96.9       96.9       0.1180    
   1  2374   1     0     2     2  97.0       97.0       0.06862   
   1  2375   1U    0     6     6  97.0       97.0       0.2656    
   1  2375   2     0     2     2  97.1       97.1       0.06639   
   1  2376   1     0     4     4  97.2       97.2       0.09959   
   1  2377   1U    0     5     5  97.2       97.2       0.1494    
   1  2377   2     0     3     3  97.2       97.2       0.03735   
   1  2378   1     0     3     3  97.3       97.3       0.05602   
   1  2379   1     0     3     3  97.3       97.3       0.08403   
   1  2380   1     0     4     4  97.5       97.5       0.1260    
   1  2381   1U    0     4     4  97.5       97.5       0.1891    
   1  2381   2     0     3     3  97.5       97.5       0.04727   
   1  2382   1     0     3     3  97.6       97.6       0.07090   
   1  2383   1     0     3     3  97.7       97.7       0.1064    
   1  2384   1     0     3     3  97.9       97.9       0.1595    
   1  2385   1     0     4     4  98.0       98.0       0.1465    
   1  2386   1U    1     1     2  98.0       98.0       0.3589    
   1  2386   2U    2     7     9  98.0       98.0       0.08973   
   1  2386   3     0     2     2  98.0       98.0       0.02243   
   1  2387   1     0     3     3  98.1       98.1       0.03365   
   1  2388   1U    2     1     3  98.1       98.1       0.05048   
   1  2388   2U    2     4     6  98.1       98.1       0.01262   
   1  2388   3     0     3     3  98.1       98.1       0.003155  
   1  2389   1U    1     8     9  98.1       98.1       0.004732  
   1  2389   2     0     1     1  98.1       98.1       0.001183  
   1  2390   1     1     6     7  98.1       98.1       0.001775  
   1  2391   1     0     3     3  98.1       98.1       0.001775  
   1  2392   1     1     2     3  98.1       98.1       0.001775  
   1  2393   1     0     4     4  98.1       98.1       0.002662  
   1  2394   1     0     2     2  98.1       98.1       0.003993  
   1  2395   1     0     2     2  98.1       98.1       0.005989  
   1  2396   1     0     3     3  98.1       98.1       0.008984  
   1  2397   1U    0     5     5  98.1       98.1       0.01348   
   1  2397   2     0     2     2  98.1       98.1       0.003369  
   1  2398   1     0     1     1  98.1       98.1       0.005053  
   1  2399   1     0     4     4  98.1       98.1       0.007580  
   1  2400   1U    0     5     5  98.1       98.1       0.01137   
   1  2400   2     0     1     1  98.1       98.1       0.002842  
   1  2401   1     0     2     2  98.1       98.1       0.004264  
   1  2402   1     0     1     1  98.1       98.1       0.006396  
   1  2403   1     0     2     2  98.1       98.1       0.009593  
   1  2404   1     0     5     5  98.1       98.1       0.01439   
   1  2405   1     0     4     4  98.2       98.2       0.01439   
   1  2406   1     0     3     3  98.2       98.2       0.01439   
   1  2407   1     0     2     2  98.2       98.2       0.02158   
   1  2408   1     0     2     2  98.2       98.2       0.03238   
   1  2409   1     0     1     1  98.3       98.3       0.04857   
   1  2410   1     0     2     2  98.3       98.3       0.07285   
   1  2411   1     0     2     2  98.5       98.5       0.1093    
   1  2412   1U    0     6     6  98.5       98.5       0.1639    
   1  2412   2     0     2     2  98.5       98.5       0.04098   
   1  2413   1     0     3     3  98.6       98.6       0.06147   
   1  2414   1     0     2     2  98.6       98.6       0.09220   
   1  2415   1     0     5     5  98.8       98.8       0.1383    
   1  2416   1     0     5     5  98.9       98.9       0.1383    
   1  2417   1     0     2     2  99.0       99.0       0.07447   
   1  2418   1U    0     7     7  99.0       99.0       0.1383    
   1  2418   2     0     3     3  99.0       99.0       0.03457   
   1  2419   1     0     4     4  99.1       99.1       0.05186   
   1  2420   1     0     3     3  99.2       99.2       0.07779   
                          
 THE ANALYSIS HAS NOT BEEN COMPLETED
